/batch
/config,noeldb,1     ! force off writing results to database
*get,_wallstrt,active,,time,wall
! ANSYS input file written by Workbench version 2021 R1
! File used for geometry attach: C:\Users\Shiv\AppData\Local\Temp\crank_hw.tmp\crank_hw_files\dp0\SYS\DM\SYS.agdb
/title,crank_hw--Static Structural (A5)
! ****** Begin Custom Load Command Snippet ******
/COM, ACT Extensions:
/COM,     LSDYNA, 2021.1
/COM,     5f463412-bd3e-484b-87e7-cbc0a665e474, wbex
/COM,
! ****** End   Custom Load Command Snippet ******
*DIM,_wb_ProjectScratch_dir,string,248
_wb_ProjectScratch_dir(1) = 'C:\Users\Shiv\AppData\Local\Temp\crank_hw.tmp\_ProjectScratch\Scr121C\'
*DIM,_wb_SolverFiles_dir,string,248
_wb_SolverFiles_dir(1) = 'C:\Users\Shiv\AppData\Local\Temp\crank_hw.tmp\crank_hw_files\dp0\SYS\MECH\'
*DIM,_wb_userfiles_dir,string,248
_wb_userfiles_dir(1) = 'C:\Users\Shiv\AppData\Local\Temp\crank_hw.tmp\crank_hw_files\user_files\'
/com,--- Data in consistent BIN units. See Solving Units in the help system for more information.
/units,BIN
/nopr
/wb,file,start              !  signify a WB generated input file
/prep7
! Turn off shape checking because checks already performed inside WB mesher.
! See help system for more information.
SHPP,OFF,,NOWARN
/nolist
etcon,set             ! allow ANSYS to choose best KEYOP's for 180x elements, resets any applicable keyopt to MAPDL defaults
/com,*********** Nodes for the whole assembly ***********
nblock,3,,31883
(1i9,3e20.9e3)
        1    -1.102428225E-01     0.000000000E+00     7.108200839E+00
        2    -1.436507812E-01     0.000000000E+00     7.171782136E+00
        3    -3.637100652E-02     0.000000000E+00     7.105663360E+00
        4    -5.203203207E-02     0.000000000E+00     7.190150159E+00
        5    -1.102487497E-01     6.250000045E-02     7.108217738E+00
        6    -1.436591514E-01     6.250000000E-02     7.171805296E+00
        7    -3.637243203E-02     6.250000026E-02     7.105678985E+00
        8    -5.203501449E-02     6.250000000E-02     7.190174110E+00
        9    -3.127726214E-17     0.000000000E+00     6.942913288E+00
       10    -1.495295239E-01     0.000000000E+00     7.047283588E+00
       11    -4.658534612E-17     6.249999924E-02     6.942913386E+00
       12    -1.495374393E-01     6.250000032E-02     7.047295498E+00
       13     1.687299855E-01     0.000000000E+00     7.056074602E+00
       14     9.389804400E-02     0.000000000E+00     6.924609647E+00
       15     9.164197885E-02     0.000000000E+00     7.083477183E+00
       16     1.689575468E-01     6.250000115E-02     7.055997467E+00
       17     9.447559636E-02     6.250000109E-02     6.924374484E+00
       18     9.167252464E-02     6.250000029E-02     7.083480718E+00
       19     1.332316692E-01     0.000000000E+00     7.174786391E+00
       20     2.205746985E-01     0.000000000E+00     7.141576046E+00
! ... 28966 like lines cut
/wb,elem,start            !  set before creation of elements
/com,*********** Elements for Body 1 "Solid" ***********
et,1,186
keyo,1,2,1          ! set full integration on SOLID186
eblock,19,solid,,5820
(19i9)
        1        1        1        1        0        0        0        0       20        0        1     5691     5823     5825     5688     6742     6874     6876     6739
    26179    23532    25353    23213     8125    26576    28397    26260    26259    26569    26575    26255
        1        1        1        1        0        0        0        0       20        0        2     5822     6706     6118     5820     6873     7757     7169     6871
    26178    26177    24376    23527     8123    28985    27420    26571    26570    28984    27421    26565
        1        1        1        1        0        0        0        0       20        0        3     6706     6705     6440     6118     7757     7756     7491     7169
    26176    26174    25328    26177     8120    28983    28372    28985    28984    28982    28373    27421
        1        1        1        1        0        0        0        0       20        0        4     6705     5694     5693     6440     7756     6745     6744     7491
    26173    23219    25352    26174     8121    26265    28396    28983    28982    26266    26264    28373
        1        1        1        1        0        0        0        0       20        0        5     6698     6704     6424     6428     7749     7755     7475     7479
    26171    26170    25290    26151     7764    28981    28334    28968    28967    28980    28321    28333
        1        1        1        1        0        0        0        0       20        0        6     6704     6703     6425     6424     7755     7754     7476     7475
    26169    26167    25279    26170     8136    28979    28323    28981    28980    28978    28324    28321
        1        1        1        1        0        0        0        0       20        0        7     6703     6702     6427     6425     7754     7753     7478     7476
    26166    26164    25288    26167     8137    28977    28332    28979    28978    28976    28329    28324
        1        1        1        1        0        0        0        0       20        0        8     6702     6701     6439     6427     7753     7752     7490     7478
    26163    26161    25326    26164     8134    28975    28370    28977    28976    28974    28368    28329
        1        1        1        1        0        0        0        0       20        0        9     6701     6700     6686     6439     7752     7751     7737     7490
    26160    26158    26112    26161     8135    28973    28942    28975    28974    28972    28943    28368
        1        1        1        1        0        0        0        0       20        0       10     6700     6699     6441     6686     7751     7750     7492     7737
    26157    26155    26117    26158     8132    28971    28946    28973    28972    28970    28376    28943
! ... 11621 like lines cut
!Material Id = {1601F0CB-AB8B-4EB3-96E4-014A3B00369A}
/wb,elem,end               !  done creating elements
/com,*********** Send User Defined Coordinate System(s) ***********
csys,0
toffst,459.67,  ! Temperature offset from absolute zero
/com,*********** Set Reference Temperature ***********
tref,71.6
/wb,mat,start              !  starting to send materials
/com,*********** Send Materials ***********
MP,EX,1,9999999.99889292,	! slinch s^-2 in^-1
MP,NUXY,1,0.33,

/wb,mat,end                !  done sending materials
!************************* Model Summary ********************
!Solid,	Al 6061-T6,	matid,	1
!************************* End Model Summary ********************
! get the diagonal of the bounding box. Needed later for other things
*get,_xmin,node,,mnloc,x
*get,_ymin,node,,mnloc,y
*get,_zmin,node,,mnloc,z
*get,_xmax,node,,mxloc,x
*get,_ymax,node,,mxloc,y
*get,_zmax,node,,mxloc,z
_ASMDIAG=(_xmax-_xmin)*(_xmax-_xmin)+(_ymax-_ymin)*(_ymax-_ymin)+(_zmax-_zmin)*(_zmax-_zmin)
_ASMDIAG=SQRT(_ASMDIAG)
/wb,contact,start          !  starting to send contact
/wb,contact,end            !  done creating contacts
/golist
/wb,load,start             !  starting to send loads
/com,*********** Fixed Supports ***********
CMBLOCK,_FIXEDSU,NODE,      720
(8i10)
       323       324       327       328       330       332       333       334
       335       336       337       338       340       342       595       596
       599       600      2379      2380      2381      2382      2383      2384
      2385      2386      2387      2388      2389      2390      2391      2393
      2395      2396      2397      2398      2399      2400      2401      2402
      2403      2404      2405      2406      2407      2408      2409      2410
      2411      2412      2413      2414      2415      2416      2417      2418
      2419      2420      2421      2422      2423      2424      2425      2426
      2427      2428      2429      2430      2431      2432      2433      2434
      2465      2466      2468      2469      2470      2471      2473      2601
      2602      3492      3493      3494      3495      3496      3497      3498
      3500      3501      3502      3503      3504      3505      3506      3507
      3508      3509      3510      3511      3512      3513      3514      3515
      3516      3517      3518      3519      3550      3551      3553      3554
      3555      3556      3558      3686      3687      4577      4578      4579
      4580      4581      4582      4583      4585      4586      4587      4588
      4589      4590      4591      4592      4593      4594      4595      4596
      4597      4598      4599      4600      4601      4602      4603      4604
      4635      4636      4638      4639      4640      4641      4643      4771
      4772      5628      5629      5630      5631      5632      5633      5634
! ... 70 like lines cut

cmsel,s,_FIXEDSU
d,all,all
nsel,all
/com,*********** Define Force Using Surface Effect Elements ***********
local,12,0,0.,0.,0.,0.,0.,0.
csys,0
et,2,154
eblock,10,,,32
(15i9)
     9477        2        2        2       12      228      105      101      226     8866     8573     8862     8377
     9478        2        2        2       12      230      108      105      228     8870     8580     8866     8376
     9479        2        2        2       12      231      110      108      230     8873     8586     8870     8375
     9480        2        2        2       12      232      112      110      231     8875     8590     8873     8374
     9481        2        2        2       12      105      103       99      101     8572     8357     8565     8573
     9482        2        2        2       12      108      107      103      105     8579     8356     8572     8580
     9483        2        2        2       12      110      109      107      108     8585     8355     8579     8586
     9484        2        2        2       12      112      111      109      110     8589     8354     8585     8590
     9485        2        2        2       12      218       85       81      216     8845     8537     8841     8365
     9486        2        2        2       12      220       89       85      218     8849     8544     8845     8364
     9487        2        2        2       12      222       93       89      220     8853     8551     8849     8363
     9488        2        2        2       12      226      101       93      222     8862     8566     8853     8362
     9489        2        2        2       12       85       83       79       81     8536     8361     8529     8537
     9490        2        2        2       12       89       87       83       85     8543     8360     8536     8544
     9491        2        2        2       12       93       91       87       89     8550     8359     8543     8551
     9492        2        2        2       12      101       99       91       93     8565     8358     8550     8566
     9493        2        2        2       12      233      114      112      232     8877     8594     8875     8369
     9494        2        2        2       12      114      113      111      112     8593     8349     8589     8594
     9495        2        2        2       12      234      117      114      233     8879     8598     8877     8368
     9496        2        2        2       12      117      115      113      114     8597     8348     8593     8598
! ... 13 like lines cut
esel,s,type,,2
keyop,2,2,1                ! Apply load in local coordinate system
keyop,2,7,1                ! Use original area so load is constant in large deformation
esel,all
/gst,on,on
fini
*get,_numnode,node,0,count
*get,_numelem,elem,0,count
*get, _MAXELEMNUM, elem, 0, NUM, MAX
*get, _MAXNODENUM, node, 0, NUM, MAX
*get, _MAXELEMTYPE, etyp, 0, NUM, MAX
*get, _MAXREALCONST, real, 0, NUM, MAX
/go
/wb,load,end               !  done creating loads
/com,--- Number of total nodes = %_numnode%
/com,--- Number of contact elements = 32
/com,--- Number of spring elements = 0
/com,--- Number of bearing elements = 0
/com,--- Number of solid elements = 5820
/com,--- Number of condensed parts = 0
/com,--- Number of total elements = %_numelem%
*get,_wallbsol,active,,time,wall
/com,****************************************************************************
/com,*************************    SOLUTION       ********************************
/com,****************************************************************************
/solu
antype,0                   ! static analysis
_thickRatio=  1     ! Ratio of thick parts in the model
eqsl,pcg,1e-8,,,,,,1
cntr,print,1               ! print out contact info and also make no initial contact an error
dmpoption,emat,no             ! Don't combine emat file for DANSYS
dmpoption,esav,no             ! Don't combine esav file for DANSYS
nldiag,cont,iter           ! print out contact info each equilibrium iteration
rescontrol,,none                 ! Do not keep any restart files
/com,****************************************************
/com,******************* SOLVE FOR LS 1 OF 1 ****************
esel,s,type,,2
nsle
sfe,all,1,pres,1,509.308315093367
sfe,all,2,pres,1,0.
sfe,all,3,pres,1,0.
nsel,all
esel,all
/nopr
/gopr
/nolist
nsub,1,1,1
time,1.
outres,erase
outres,all,none
outres,nsol,all,
outres,rsol,all
outres,eangl,all
outres,etmp,all
outres,veng,all
outres,strs,all,
outres,srfs,all,
outres,bkstr,all,
outres,epel,all,
outres,eppl,all,
outres,cont,all,
outres,nldat,all,
stabilize,off                   ! Stabilization turned OFF by user
! *********** WB SOLVE COMMAND ***********
! check interactive state
*get,ANSINTER_,active,,int
*if,ANSINTER_,ne,0,then
/eof
*endif
solve
/com *************** Write FE CONNECTORS ********* 
CEWRITE,file,ce,,INTE
/com,****************************************************
/com,*************** FINISHED SOLVE FOR LS 1 *************
*get,_wallasol,active,,time,wall
/nopr
*get,_numnode,node,0,count
*get,_numelem,elem,0,count
*get, _MAXELEMNUM, elem, 0, NUM, MAX
*get, _MAXNODENUM, node, 0, NUM, MAX,,,INTERNAL
*get, _MAXELEMTYPE, etyp, 0, NUM, MAX
*get, _MAXREALCONST, real, 0, NUM, MAX
/gopr
*get,_PCGITER,active,,solu,cgiter
/post1
xmlo,ENCODING,ISO-8859-1
xmlo,parm
/xml,parm,xml
fini
/gopr
*get,_walldone,active,,time,wall
_preptime=(_wallbsol-_wallstrt)*3600
_solvtime=(_wallasol-_wallbsol)*3600
_posttime=(_walldone-_wallasol)*3600
_totaltim=(_walldone-_wallstrt)*3600
*get,_dlbratio,active,0,solu,dlbr
*get,_combtime,active,0,solu,comb
/com,--- Total number of nodes = %_numnode%
/com,--- Total number of elements = %_numelem%
/com,--- Element load balance ratio = %_dlbratio%
/com,--- Time to combine distributed files = %_combtime%
/wb,file,end               ! done with WB generated input
