
 ANSYS Mechanical Enterprise Academic Student      


 *------------------------------------------------------------------*
 |                                                                  |
 |   W E L C O M E   T O   T H E   A N S Y S (R)  P R O G R A M     |
 |                                                                  |
 *------------------------------------------------------------------*




 ***************************************************************
 *            ANSYS 2021 R1          LEGAL NOTICES             *
 ***************************************************************
 *                                                             *
 * Copyright 1971-2021 ANSYS, Inc.  All rights reserved.       *
 * Unauthorized use, distribution or duplication is            *
 * prohibited.                                                 *
 *                                                             *
 * Ansys is a registered trademark of ANSYS, Inc. or its       *
 * subsidiaries in the United States or other countries.       *
 * See the ANSYS, Inc. online documentation or the ANSYS, Inc. *
 * documentation CD or online help for the complete Legal      *
 * Notice.                                                     *
 *                                                             *
 ***************************************************************
 *                                                             *
 * THIS ANSYS SOFTWARE PRODUCT AND PROGRAM DOCUMENTATION       *
 * INCLUDE TRADE SECRETS AND CONFIDENTIAL AND PROPRIETARY      *
 * PRODUCTS OF ANSYS, INC., ITS SUBSIDIARIES, OR LICENSORS.    *
 * The software products and documentation are furnished by    *
 * ANSYS, Inc. or its subsidiaries under a software license    *
 * agreement that contains provisions concerning               *
 * non-disclosure, copying, length and nature of use,          *
 * compliance with exporting laws, warranties, disclaimers,    *
 * limitations of liability, and remedies, and other           *
 * provisions.  The software products and documentation may be *
 * used, disclosed, transferred, or copied only in accordance  *
 * with the terms and conditions of that software license      *
 * agreement.                                                  *
 *                                                             *
 * ANSYS, Inc. is a UL registered                              *
 * ISO 9001:2015 company.                                      *
 *                                                             *
 ***************************************************************
 *                                                             *
 * This product is subject to U.S. laws governing export and   *
 * re-export.                                                  *
 *                                                             *
 * For U.S. Government users, except as specifically granted   *
 * by the ANSYS, Inc. software license agreement, the use,     *
 * duplication, or disclosure by the United States Government  *
 * is subject to restrictions stated in the ANSYS, Inc.        *
 * software license agreement and FAR 12.212 (for non-DOD      *
 * licenses).                                                  *
 *                                                             *
 ***************************************************************

 2021 R1 
     
 Point Releases and Patches installed:   
     
 Academic Student 2021 R1
 Aqwa 2021 R1
 EnSight 2021 R1 
 FENSAP-ICE 2021 R1  


          *****  ANSYS COMMAND LINE ARGUMENTS  *****
  BATCH MODE REQUESTED (-b)    = NOLIST
  INPUT FILE COPY MODE (-c)    = COPY
  DISTRIBUTED MEMORY PARALLEL REQUESTED
       2 PARALLEL PROCESSES REQUESTED WITH SINGLE THREAD PER PROCESS
    TOTAL OF     2 CORES REQUESTED
  INPUT FILE NAME              = C:\Users\Shiv\Documents\ANSYS\_ProjectScratch\Scr34E4\dummy.dat
  OUTPUT FILE NAME             = C:\Users\Shiv\Documents\ANSYS\_ProjectScratch\Scr34E4\solve.out
  START-UP FILE MODE           = NOREAD
  STOP FILE MODE               = NOREAD

 RELEASE= 2021 R1              BUILD= 21.1      UP20201109   VERSION=WINDOWS x64 
 CURRENT JOBNAME=file0  13:55:15  JUN 11, 2021 CP=      0.219


 PARAMETER _DS_PROGRESS =     999.0000000    

 /INPUT FILE= ds.dat  LINE=       0



 *** NOTE ***                            CP =       0.266   TIME= 13:55:15
 The /CONFIG,NOELDB command is not valid in a Distributed ANSYS          
 solution.  Command is ignored.                                          

 *GET  _WALLSTRT  FROM  ACTI  ITEM=TIME WALL  VALUE=  13.9208333    

 TITLE= 
 Bolted Nozzle Flange--Static Structural (B5)                                  

  ACT Extensions:
      LSDYNA, 2021.1
      5f463412-bd3e-484b-87e7-cbc0a665e474, wbex
  

 SET PARAMETER DIMENSIONS ON  _WB_PROJECTSCRATCH_DIR
  TYPE=STRI  DIMENSIONS=      248        1        1

 PARAMETER _WB_PROJECTSCRATCH_DIR(1) = C:\Users\Shiv\Documents\ANSYS\_ProjectScratch\Scr34E4\

 SET PARAMETER DIMENSIONS ON  _WB_SOLVERFILES_DIR
  TYPE=STRI  DIMENSIONS=      248        1        1

 PARAMETER _WB_SOLVERFILES_DIR(1) = C:\Users\Shiv\Documents\ANSYS\Bolted Nozzle Flange_files\dp0\SYS-1\MECH\

 SET PARAMETER DIMENSIONS ON  _WB_USERFILES_DIR
  TYPE=STRI  DIMENSIONS=      248        1        1

 PARAMETER _WB_USERFILES_DIR(1) = C:\Users\Shiv\Documents\ANSYS\Bolted Nozzle Flange_files\user_files\
 --- Data in consistent BIN units. See Solving Units in the help system for more

 U.S. CUSTOMARY INCH UNITS SPECIFIED FOR INTERNAL    
  LENGTH      = INCHES (IN)
  MASS        = LBF-S**2/IN 
  TIME        = SECONDS (SEC)  
  TEMPERATURE = FAHRENHEIT
  TOFFSET     = 460.0
  FORCE       = LBF
  HEAT        = IN-LBF
  PRESSURE    = PSI (LBF/IN**2)
  ENERGY      = IN-LBF
  POWER       = IN-LBF/SEC

 INPUT  UNITS ARE ALSO SET TO BIN 

 *** ANSYS - ENGINEERING ANALYSIS SYSTEM  RELEASE 2021 R1          21.1     ***
 DISTRIBUTED ANSYS Mechanical Enterprise Academic Student      

 00000000  VERSION=WINDOWS x64   13:55:15  JUN 11, 2021 CP=      0.266

 Bolted Nozzle Flange--Static Structural (B5)                                  



          ***** ANSYS ANALYSIS DEFINITION (PREP7) *****
 *********** Nodes for the whole assembly ***********
 *********** Nodes for all Remote Points ***********
 *********** Elements for Body 1 "MidNozzle" ***********
 *********** Elements for Body 3 "LowerNozzle" ***********
 *********** Elements for Body 5 "Bolt" ***********
 *********** Elements for Body 7 "Nut" ***********
 *********** Send User Defined Coordinate System(s) ***********
 *********** Set Reference Temperature ***********
 *********** Send Materials ***********
 *********** Create Contact "Bonded - Bolt To Nut" ***********
             Real Constant Set For Above Contact Is 10 & 9
 *********** Create Contact "Frictional - LowerNozzle To MidNozzle" ***********
             Real Constant Set For Above Contact Is 12 & 11
 *********** Create Contact "Frictionless - MidNozzle To Bolt" ***********
             Real Constant Set For Above Contact Is 14 & 13
 *********** Create Contact "Frictionless - LowerNozzle To Nut" ***********
             Real Constant Set For Above Contact Is 16 & 15
 *********** Create Contact "Frictionless - Bolt To Multiple" ***********
             Real Constant Set For Above Contact Is 18 & 17
 ********* Frictionless Supports X *********
 ********* Frictionless Supports Z *********
 *********** Node Rotations ***********
 *********** Define Pressure Using Surface Effect Elements ***********
 *********** Define Force Using Surface Effect Elements ***********
 *********** Define Force Using Surface Effect Elements ***********
 *********** Create Bolt Pretension "Bolt Pretension" ***********
  CREATE COMPONENT CMEBOLT  FROM PRETENSION ELEMENTS
  CREATE COMPONENT CMNBOLT  FROM PRETENSION NODES
 *********** Construct Weak Springs, Prototype 1 ***********
 *********** Construct Weak Springs, Prototype 2 ***********
 *********** Construct Weak Springs, Prototype 3 ***********
 *********** Construct Weak Springs, Prototype 4 ***********
 *********** Define Body Force Temperature ***********


 ***** ROUTINE COMPLETED *****  CP =         1.125


 --- Number of total nodes = 26241
 --- Number of contact elements = 2207
 --- Number of spring elements = 96
 --- Number of bearing elements = 0
 --- Number of solid elements = 4231
 --- Number of condensed parts = 0
 --- Number of total elements = 6581

 *GET  _WALLBSOL  FROM  ACTI  ITEM=TIME WALL  VALUE=  13.9208333    
 ****************************************************************************
 *************************    SOLUTION       ********************************
 ****************************************************************************

 *****  ANSYS SOLUTION ROUTINE  *****


 PERFORM A STATIC ANALYSIS
  THIS WILL BE A NEW ANALYSIS

 PARAMETER _THICKRATIO =    0.5000000000    

 USE SPARSE MATRIX DIRECT SOLVER

 CONTACT INFORMATION PRINTOUT LEVEL       1

 DO NOT COMBINE ELEMENT MATRIX FILES (.emat) AFTER DISTRIBUTED PARALLEL SOLUTION

 DO NOT COMBINE ELEMENT SAVE DATA FILES (.esav) AFTER DISTRIBUTED PARALLEL SOLUTION

 NLDIAG: Nonlinear diagnostics CONT option is set to ON. 
         Writing frequency : each ITERATION.

 DEFINE RESTART CONTROL FOR LOADSTEP LAST
 AT FREQUENCY OF LAST AND NUMBER FOR OVERWRITE IS   -1

 DELETE RESTART FILES OF ENDSTEP
 ****************************************************
 ******************* SOLVE FOR LS 1 OF 3 ****************

 SELECT       FOR ITEM=TYPE COMPONENT=    
  IN RANGE        19 TO         19 STEP          1

       1649  ELEMENTS (OF       6581  DEFINED) SELECTED BY  ESEL  COMMAND.

 SELECT      ALL NODES HAVING ANY ELEMENT IN ELEMENT SET.

       6059 NODES (OF      26241  DEFINED) SELECTED FROM
     1649 SELECTED ELEMENTS BY NSLE COMMAND.

 GENERATE SURFACE LOAD PRES ON SURFACE DEFINED BY ALL SELECTED NODES
 SET ACCORDING TO TABLE PARAMETER = _LOADVARI303                    

 NUMBER OF PRES ELEMENT FACE LOADS STORED =       1649

 ALL SELECT   FOR ITEM=NODE COMPONENT=    
  IN RANGE         1 TO      26241 STEP          1

      26241  NODES (OF      26241  DEFINED) SELECTED BY NSEL  COMMAND.

 ALL SELECT   FOR ITEM=ELEM COMPONENT=    
  IN RANGE         1 TO      12676 STEP          1

       6581  ELEMENTS (OF       6581  DEFINED) SELECTED BY  ESEL  COMMAND.

 SELECT       FOR ITEM=TYPE COMPONENT=    
  IN RANGE        20 TO         20 STEP          1

          6  ELEMENTS (OF       6581  DEFINED) SELECTED BY  ESEL  COMMAND.

 SELECT      ALL NODES HAVING ANY ELEMENT IN ELEMENT SET.

         29 NODES (OF      26241  DEFINED) SELECTED FROM
        6 SELECTED ELEMENTS BY NSLE COMMAND.

 SPECIFIED SURFACE LOAD PRES FOR ALL SELECTED ELEMENTS  LKEY =  1   KVAL = 1
      SET ACCORDING TO TABLE PARAMETER = _LOADVARI305X                   

 SPECIFIED SURFACE LOAD PRES FOR ALL SELECTED ELEMENTS  LKEY =  2   KVAL = 1
      SET ACCORDING TO TABLE PARAMETER = _LOADVARI305Y                   

 SPECIFIED SURFACE LOAD PRES FOR ALL SELECTED ELEMENTS  LKEY =  3   KVAL = 1
      SET ACCORDING TO TABLE PARAMETER = _LOADVARI305Z                   

 SELECT       FOR ITEM=TYPE COMPONENT=    
  IN RANGE        21 TO         21 STEP          1

          6  ELEMENTS (OF       6581  DEFINED) SELECTED BY  ESEL  COMMAND.

 SELECT      ALL NODES HAVING ANY ELEMENT IN ELEMENT SET.

         29 NODES (OF      26241  DEFINED) SELECTED FROM
        6 SELECTED ELEMENTS BY NSLE COMMAND.

 SPECIFIED SURFACE LOAD PRES FOR ALL SELECTED ELEMENTS  LKEY =  1   KVAL = 1
      SET ACCORDING TO TABLE PARAMETER = _LOADVARI308X                   

 SPECIFIED SURFACE LOAD PRES FOR ALL SELECTED ELEMENTS  LKEY =  2   KVAL = 1
      SET ACCORDING TO TABLE PARAMETER = _LOADVARI308Y                   

 SPECIFIED SURFACE LOAD PRES FOR ALL SELECTED ELEMENTS  LKEY =  3   KVAL = 1
      SET ACCORDING TO TABLE PARAMETER = _LOADVARI308Z                   

 ALL SELECT   FOR ITEM=NODE COMPONENT=    
  IN RANGE         1 TO      26241 STEP          1

      26241  NODES (OF      26241  DEFINED) SELECTED BY NSEL  COMMAND.

 ALL SELECT   FOR ITEM=ELEM COMPONENT=    
  IN RANGE         1 TO      12676 STEP          1

       6581  ELEMENTS (OF       6581  DEFINED) SELECTED BY  ESEL  COMMAND.

 ALL SELECT   FOR ITEM=ELEM COMPONENT=    
  IN RANGE         1 TO      12676 STEP          1

       6581  ELEMENTS (OF       6581  DEFINED) SELECTED BY  ESEL  COMMAND.

 PRINTOUT RESUMED BY /GOP

 SELECT      COMPONENT _CM291                          

 SELECT      ALL NODES HAVING ANY ELEMENT IN ELEMENT SET.

      26144 NODES (OF      26241  DEFINED) SELECTED FROM
     4231 SELECTED ELEMENTS BY NSLE COMMAND.

 SPECIFIED BODY FORCE TEMP FOR ALL SELECTED NODES SET ACCORDING TO
 TABLE PARAMETER = _LOADVARI291 

 ALL SELECT   FOR ITEM=NODE COMPONENT=    
  IN RANGE         1 TO      26241 STEP          1

      26241  NODES (OF      26241  DEFINED) SELECTED BY NSEL  COMMAND.

 ALL SELECT   FOR ITEM=ELEM COMPONENT=    
  IN RANGE         1 TO      12676 STEP          1

       6581  ELEMENTS (OF       6581  DEFINED) SELECTED BY  ESEL  COMMAND.

 SPECIFIED NODAL LOAD FX   FOR SELECTED NODES     26098 TO    26098 BY        1
  REAL=  1160.00000       IMAG=  0.00000000    

 USE AUTOMATIC TIME STEPPING THIS LOAD STEP

 USE       5 SUBSTEPS INITIALLY THIS LOAD STEP FOR ALL  DEGREES OF FREEDOM
 FOR AUTOMATIC TIME STEPPING:
   USE     20 SUBSTEPS AS A MAXIMUM
   USE      1 SUBSTEPS AS A MINIMUM

 TIME=  1.0000    

 ERASE THE CURRENT DATABASE OUTPUT CONTROL TABLE.


 WRITE ALL  ITEMS TO THE DATABASE WITH A FREQUENCY OF NONE
   FOR ALL APPLICABLE ENTITIES

 WRITE NSOL ITEMS TO THE DATABASE WITH A FREQUENCY OF LAST
   FOR ALL APPLICABLE ENTITIES

 WRITE RSOL ITEMS TO THE DATABASE WITH A FREQUENCY OF LAST
   FOR ALL APPLICABLE ENTITIES

 WRITE EANG ITEMS TO THE DATABASE WITH A FREQUENCY OF LAST
   FOR ALL APPLICABLE ENTITIES

 WRITE ETMP ITEMS TO THE DATABASE WITH A FREQUENCY OF LAST
   FOR ALL APPLICABLE ENTITIES

 WRITE VENG ITEMS TO THE DATABASE WITH A FREQUENCY OF LAST
   FOR ALL APPLICABLE ENTITIES

 WRITE NLOA ITEMS TO THE DATABASE WITH A FREQUENCY OF LAST
   FOR ALL APPLICABLE ENTITIES

 WRITE STRS ITEMS TO THE DATABASE WITH A FREQUENCY OF LAST
   FOR ALL APPLICABLE ENTITIES

 WRITE SRFS ITEMS TO THE DATABASE WITH A FREQUENCY OF LAST
   FOR ALL APPLICABLE ENTITIES

 WRITE BKST ITEMS TO THE DATABASE WITH A FREQUENCY OF LAST
   FOR ALL APPLICABLE ENTITIES

 WRITE EPEL ITEMS TO THE DATABASE WITH A FREQUENCY OF LAST
   FOR ALL APPLICABLE ENTITIES

 WRITE EPPL ITEMS TO THE DATABASE WITH A FREQUENCY OF LAST
   FOR ALL APPLICABLE ENTITIES

 WRITE EPTH ITEMS TO THE DATABASE WITH A FREQUENCY OF LAST
   FOR ALL APPLICABLE ENTITIES

 WRITE MISC ITEMS TO THE DATABASE WITH A FREQUENCY OF LAST
   FOR THE ENTITIES DEFINED BY COMPONENT _ALLCONTACTS

 WRITE CONT ITEMS TO THE DATABASE WITH A FREQUENCY OF LAST
   FOR ALL APPLICABLE ENTITIES

 WRITE NLDA ITEMS TO THE DATABASE WITH A FREQUENCY OF LAST
   FOR ALL APPLICABLE ENTITIES

 NONLINEAR STABILIZATION CONTROL:
 KEY=OFF 


 *GET  ANSINTER_  FROM  ACTI  ITEM=INT        VALUE=  0.00000000    

 *IF  ANSINTER_                         ( =   0.00000     )  NE  
      0                                 ( =   0.00000     )  THEN    

 *ENDIF

 *** NOTE ***                            CP =       1.188   TIME= 13:55:15
 The automatic domain decomposition logic has selected the MESH domain   
 decomposition method with 2 processes per solution.                     

 *****  ANSYS SOLVE    COMMAND  *****

 *** WARNING ***                         CP =       1.188   TIME= 13:55:15
 Element shape checking is currently inactive.  Issue SHPP,ON or         
 SHPP,WARN to reactivate, if desired.                                    

 *** NOTE ***                            CP =       1.219   TIME= 13:55:15
 The model data was checked and warning messages were found.             
  Please review output or errors file (                                  
 C:\Users\Shiv\Documents\ANSYS\_ProjectScratch\Scr34E4\file0.err ) for   
 these warning messages.                                                 

 *** SELECTION OF ELEMENT TECHNOLOGIES FOR APPLICABLE ELEMENTS ***
      --- GIVE SUGGESTIONS AND RESET THE KEY OPTIONS ---

 ELEMENT TYPE         1 IS SOLID187. IT IS NOT ASSOCIATED WITH FULLY INCOMPRESSIBLE
 HYPERELASTIC MATERIALS. NO SUGGESTION IS AVAILABLE AND NO RESETTING IS NEEDED.

 ELEMENT TYPE         2 IS SOLID186. KEYOPT(2)=0 IS SUGGESTED AND HAS BEEN RESET.
  KEYOPT(1-12)=    0    0    0    0    0    0    0    0    0    0    0    0

 ELEMENT TYPE         3 IS SOLID187. IT IS NOT ASSOCIATED WITH FULLY INCOMPRESSIBLE
 HYPERELASTIC MATERIALS. NO SUGGESTION IS AVAILABLE AND NO RESETTING IS NEEDED.

 ELEMENT TYPE         4 IS SOLID186. KEYOPT(2)=0 IS SUGGESTED AND HAS BEEN RESET.
  KEYOPT(1-12)=    0    0    0    0    0    0    0    0    0    0    0    0

 ELEMENT TYPE         5 IS SOLID187. IT IS NOT ASSOCIATED WITH FULLY INCOMPRESSIBLE
 HYPERELASTIC MATERIALS. NO SUGGESTION IS AVAILABLE AND NO RESETTING IS NEEDED.

 ELEMENT TYPE         6 IS SOLID186. KEYOPT(2)=0 IS SUGGESTED AND HAS BEEN RESET.
  KEYOPT(1-12)=    0    0    0    0    0    0    0    0    0    0    0    0

 ELEMENT TYPE         7 IS SOLID187. IT IS NOT ASSOCIATED WITH FULLY INCOMPRESSIBLE
 HYPERELASTIC MATERIALS. NO SUGGESTION IS AVAILABLE AND NO RESETTING IS NEEDED.

 ELEMENT TYPE         8 IS SOLID186. KEYOPT(2)=0 IS SUGGESTED AND HAS BEEN RESET.
  KEYOPT(1-12)=    0    0    0    0    0    0    0    0    0    0    0    0



 *** ANSYS - ENGINEERING ANALYSIS SYSTEM  RELEASE 2021 R1          21.1     ***
 DISTRIBUTED ANSYS Mechanical Enterprise Academic Student      

 00000000  VERSION=WINDOWS x64   13:55:15  JUN 11, 2021 CP=      1.250

 Bolted Nozzle Flange--Static Structural (B5)                                  



                       S O L U T I O N   O P T I O N S

   PROBLEM DIMENSIONALITY. . . . . . . . . . . . .3-D                  
   DEGREES OF FREEDOM. . . . . . UX   UY   UZ  
   ANALYSIS TYPE . . . . . . . . . . . . . . . . .STATIC (STEADY-STATE)
   OFFSET TEMPERATURE FROM ABSOLUTE ZERO . . . . .  459.67    
   EQUATION SOLVER OPTION. . . . . . . . . . . . .SPARSE             
   NEWTON-RAPHSON OPTION . . . . . . . . . . . . .PROGRAM CHOSEN   
   GLOBALLY ASSEMBLED MATRIX . . . . . . . . . . .SYMMETRIC  

 *** WARNING ***                         CP =       1.250   TIME= 13:55:15
 Material number 19 (used by element 10873) should normally have at      
 least one MP or one TB type command associated with it.  Output of      
 energy by material may not be available.                                

 *** NOTE ***                            CP =       1.250   TIME= 13:55:15
 The step data was checked and warning messages were found.              
  Please review output or errors file (                                  
 C:\Users\Shiv\Documents\ANSYS\_ProjectScratch\Scr34E4\file0.err ) for   
 these warning messages.                                                 

 *** NOTE ***                            CP =       1.250   TIME= 13:55:15
 This nonlinear analysis defaults to using the full Newton-Raphson       
 solution procedure.  This can be modified using the NROPT command.      

 *** NOTE ***                            CP =       1.312   TIME= 13:55:15
 Symmetric Deformable- deformable contact pair identified by real        
 constant set 9 and contact element type 9 has been set up.  The         
 companion pair has real constant set ID 10.  Both pairs should have     
 the same behavior.                                                      
 ANSYS will deactivate the current pair and keep its companion pair,     
 resulting in asymmetric contact.                                        
 Contact algorithm: Augmented Lagrange method
 Contact detection at: Gauss integration point
 Contact stiffness factor FKN                  1.0000    
 The resulting initial contact stiffness      0.10593E+11
 Default penetration tolerance factor FTOLN   0.10000    
 The resulting penetration tolerance          0.49508E-02
 Default opening contact stiffness OPSF will be used.
 Default tangent stiffness factor FKT          1.0000    
 Default elastic slip factor SLTOL            0.50000E-02
 The resulting elastic slip tolerance         0.34717E-03
 Update contact stiffness at each iteration
 Default Max. friction stress TAUMAX          0.10000E+21
 Average contact surface length               0.69433E-01
 Average contact pair depth                   0.49508E-01
 Default pinball region factor PINB           0.25000    
 The resulting pinball region                 0.12377E-01
 Initial penetration/gap is excluded.
 Bonded contact (always) is defined.

 *** NOTE ***                            CP =       1.312   TIME= 13:55:15
 Max.  Initial penetration 2.461901689E-03 was detected between contact  
 element 10443 and target element 10508.                                 
 You may move entire target surface by : x= 1.282227908E-03, y=          
 2.101630681E-03, z= 8.973468971E-09,to reduce initial penetration.      
 ****************************************
  

 *** NOTE ***                            CP =       1.312   TIME= 13:55:15
 Symmetric Deformable- deformable contact pair identified by real        
 constant set 10 and contact element type 9 has been set up.  The        
 companion pair has real constant set ID 9.  Both pairs should have the  
 same behavior.                                                          
 ANSYS will keep the current pair and deactivate its companion pair,     
 resulting in asymmetric contact.                                        
 Contact algorithm: Augmented Lagrange method
 Contact detection at: Gauss integration point
 Contact stiffness factor FKN                  1.0000    
 The resulting initial contact stiffness      0.10593E+11
 Default penetration tolerance factor FTOLN   0.10000    
 The resulting penetration tolerance          0.54754E-02
 Default opening contact stiffness OPSF will be used.
 Default tangent stiffness factor FKT          1.0000    
 Default elastic slip factor SLTOL            0.50000E-02
 The resulting elastic slip tolerance         0.33174E-03
 Update contact stiffness at each iteration
 Default Max. friction stress TAUMAX          0.10000E+21
 Average contact surface length               0.66347E-01
 Average contact pair depth                   0.54754E-01
 Default pinball region factor PINB           0.25000    
 The resulting pinball region                 0.13688E-01
 Initial penetration/gap is excluded.
 Bonded contact (always) is defined.

 *** NOTE ***                            CP =       1.312   TIME= 13:55:15
 Max.  Initial penetration 2.391099013E-03 was detected between contact  
 element 10473 and target element 10380.                                 
 You may move entire target surface by : x= -1.511133485E-03, y=         
 -1.853051118E-03, z= 5.624298763E-06,to reduce initial penetration.     
 ****************************************
  

 *** NOTE ***                            CP =       1.312   TIME= 13:55:15
 Symmetric Deformable- deformable contact pair identified by real        
 constant set 11 and contact element type 11 has been set up.  The       
 companion pair has real constant set ID 12.  Both pairs should have     
 the same behavior.                                                      
 ANSYS will keep the current pair and deactivate its companion pair,     
 resulting in asymmetric contact.                                        
 Contact algorithm: Augmented Lagrange method
 Contact detection at: Gauss integration point
 Contact stiffness factor FKN                  1.0000    
 The resulting initial contact stiffness      0.28296E+10
 Default penetration tolerance factor FTOLN   0.10000    
 The resulting penetration tolerance          0.17749E-01
 Max. initial friction coefficient MU         0.50000    
 Default tangent stiffness factor FKT          1.0000    
 Default elastic slip factor SLTOL            0.10000E-01
 The resulting elastic slip tolerance         0.25950E-02
 Update contact stiffness at each iteration
 Default Max. friction stress TAUMAX          0.10000E+21
 Average contact surface length               0.25950    
 Average contact pair depth                   0.17749    
 Default pinball region factor PINB            1.0000    
 The resulting pinball region                 0.17749    
 *WARNING*: Initial penetration is included.

 *** NOTE ***                            CP =       1.312   TIME= 13:55:15
 Max.  Initial penetration 1.421085472E-14 was detected between contact  
 element 10549 and target element 10599.                                 
 ****************************************
  

 *** NOTE ***                            CP =       1.312   TIME= 13:55:15
 Symmetric Deformable- deformable contact pair identified by real        
 constant set 12 and contact element type 11 has been set up.  The       
 companion pair has real constant set ID 11.  Both pairs should have     
 the same behavior.                                                      
 ANSYS will deactivate the current pair and keep its companion pair,     
 resulting in asymmetric contact.                                        
 Contact algorithm: Augmented Lagrange method
 Contact detection at: Gauss integration point
 Contact stiffness factor FKN                  1.0000    
 The resulting initial contact stiffness      0.28296E+10
 Default penetration tolerance factor FTOLN   0.10000    
 The resulting penetration tolerance          0.20498E-01
 Max. initial friction coefficient MU         0.50000    
 Default tangent stiffness factor FKT          1.0000    
 Default elastic slip factor SLTOL            0.10000E-01
 The resulting elastic slip tolerance         0.27455E-02
 Update contact stiffness at each iteration
 Default Max. friction stress TAUMAX          0.10000E+21
 Average contact surface length               0.27455    
 Average contact pair depth                   0.20498    
 Default pinball region factor PINB            1.0000    
 The resulting pinball region                 0.20498    
 *WARNING*: Initial penetration is included.

 *** NOTE ***                            CP =       1.312   TIME= 13:55:15
 Max.  Initial penetration 2.842170943E-14 was detected between contact  
 element 10589 and target element 10541.                                 
 ****************************************
  

 *** NOTE ***                            CP =       1.312   TIME= 13:55:15
 Symmetric Deformable- deformable contact pair identified by real        
 constant set 13 and contact element type 13 has been set up.  The       
 companion pair has real constant set ID 14.  Both pairs should have     
 the same behavior.                                                      
 ANSYS will deactivate the current pair and keep its companion pair,     
 resulting in asymmetric contact.                                        
 Contact algorithm: Augmented Lagrange method
 Contact detection at: Gauss integration point
 Contact stiffness factor FKN                  1.0000    
 The resulting initial contact stiffness      0.30044E+10
 Default penetration tolerance factor FTOLN   0.10000    
 The resulting penetration tolerance          0.19305E-01
 Frictionless contact pair is defined
 Update contact stiffness at each iteration
 Average contact surface length               0.26924    
 Average contact pair depth                   0.19305    
 Default pinball region factor PINB            1.0000    
 The resulting pinball region                 0.19305    
 *WARNING*: Initial penetration is included.

 *** NOTE ***                            CP =       1.312   TIME= 13:55:15
 Max.  Initial penetration 1.421085472E-14 was detected between contact  
 element 10647 and target element 10661.                                 
 ****************************************
  

 *** NOTE ***                            CP =       1.312   TIME= 13:55:15
 Symmetric Deformable- deformable contact pair identified by real        
 constant set 14 and contact element type 13 has been set up.  The       
 companion pair has real constant set ID 13.  Both pairs should have     
 the same behavior.                                                      
 ANSYS will keep the current pair and deactivate its companion pair,     
 resulting in asymmetric contact.                                        
 Contact algorithm: Augmented Lagrange method
 Contact detection at: Gauss integration point
 Contact stiffness factor FKN                  1.0000    
 The resulting initial contact stiffness      0.30044E+10
 Default penetration tolerance factor FTOLN   0.10000    
 The resulting penetration tolerance          0.65309E-02
 Frictionless contact pair is defined
 Update contact stiffness at each iteration
 Average contact surface length               0.67068E-01
 Average contact pair depth                   0.65309E-01
 Default pinball region factor PINB            1.0000    
 The resulting pinball region                 0.65309E-01
 *WARNING*: Initial penetration is included.

 *** NOTE ***                            CP =       1.312   TIME= 13:55:15
 Max.  Initial penetration 1.421085472E-14 was detected between contact  
 element 10652 and target element 10628.                                 
 ****************************************
  

 *** NOTE ***                            CP =       1.312   TIME= 13:55:15
 Symmetric Deformable- deformable contact pair identified by real        
 constant set 15 and contact element type 15 has been set up.  The       
 companion pair has real constant set ID 16.  Both pairs should have     
 the same behavior.                                                      
 ANSYS will deactivate the current pair and keep its companion pair,     
 resulting in asymmetric contact.                                        
 Contact algorithm: Augmented Lagrange method
 Contact detection at: Gauss integration point
 Contact stiffness factor FKN                  1.0000    
 The resulting initial contact stiffness      0.44796E+10
 Default penetration tolerance factor FTOLN   0.10000    
 The resulting penetration tolerance          0.12948E-01
 Frictionless contact pair is defined
 Update contact stiffness at each iteration
 Average contact surface length               0.23884    
 Average contact pair depth                   0.12948    
 Default pinball region factor PINB            1.0000    
 The resulting pinball region                 0.12948    
 *WARNING*: Initial penetration is included.

 *** NOTE ***                            CP =       1.312   TIME= 13:55:15
 Max.  Initial penetration 1.421085472E-14 was detected between contact  
 element 10707 and target element 10735.                                 
 ****************************************
  

 *** NOTE ***                            CP =       1.312   TIME= 13:55:15
 Symmetric Deformable- deformable contact pair identified by real        
 constant set 16 and contact element type 15 has been set up.  The       
 companion pair has real constant set ID 15.  Both pairs should have     
 the same behavior.                                                      
 ANSYS will keep the current pair and deactivate its companion pair,     
 resulting in asymmetric contact.                                        
 Contact algorithm: Augmented Lagrange method
 Contact detection at: Gauss integration point
 Contact stiffness factor FKN                  1.0000    
 The resulting initial contact stiffness      0.44796E+10
 Default penetration tolerance factor FTOLN   0.10000    
 The resulting penetration tolerance          0.44544E-02
 Frictionless contact pair is defined
 Update contact stiffness at each iteration
 Average contact surface length               0.66543E-01
 Average contact pair depth                   0.44544E-01
 Default pinball region factor PINB            1.0000    
 The resulting pinball region                 0.44544E-01
 *WARNING*: Initial penetration is included.

 *** NOTE ***                            CP =       1.312   TIME= 13:55:15
 Max.  Initial penetration 2.842170943E-14 was detected between contact  
 element 10711 and target element 10690.                                 
 ****************************************
  

 *** NOTE ***                            CP =       1.312   TIME= 13:55:15
 Symmetric Deformable- deformable contact pair identified by real        
 constant set 17 and contact element type 17 has been set up.  The       
 companion pair has real constant set ID 18.  Both pairs should have     
 the same behavior.                                                      
 ANSYS will keep the current pair and deactivate its companion pair,     
 resulting in asymmetric contact.                                        
 Contact algorithm: Augmented Lagrange method
 Contact detection at: Gauss integration point
 Contact stiffness factor FKN                  1.0000    
 The resulting initial contact stiffness      0.28827E+10
 Default penetration tolerance factor FTOLN   0.10000    
 The resulting penetration tolerance          0.49803E-02
 Frictionless contact pair is defined
 Update contact stiffness at each iteration
 Average contact surface length               0.70374E-01
 Average contact pair depth                   0.49803E-01
 Default pinball region factor PINB            1.0000    
 The resulting pinball region                 0.49803E-01
 *WARNING*: Initial penetration is included.

 *** NOTE ***                            CP =       1.312   TIME= 13:55:15
 Max.  Initial penetration 2.205810488E-04 was detected between contact  
 element 10806 and target element 10858.                                 
 You may move entire target surface by : x= 1.576736508E-04, y=          
 -1.542563417E-04, z= 9.627013701E-11,to reduce initial penetration.     
 ****************************************
  

 *** NOTE ***                            CP =       1.312   TIME= 13:55:15
 Symmetric Deformable- deformable contact pair identified by real        
 constant set 18 and contact element type 17 has been set up.  The       
 companion pair has real constant set ID 17.  Both pairs should have     
 the same behavior.                                                      
 ANSYS will deactivate the current pair and keep its companion pair,     
 resulting in asymmetric contact.                                        
 Contact algorithm: Augmented Lagrange method
 Contact detection at: Gauss integration point
 Contact stiffness factor FKN                  1.0000    
 The resulting initial contact stiffness      0.28827E+10
 Default penetration tolerance factor FTOLN   0.10000    
 The resulting penetration tolerance          0.20120E-01
 Frictionless contact pair is defined
 Update contact stiffness at each iteration
 Average contact surface length               0.13542    
 Average contact pair depth                   0.20120    
 Default pinball region factor PINB            1.0000    
 The resulting pinball region                 0.20120    
 *WARNING*: Initial penetration is included.

 *** NOTE ***                            CP =       1.312   TIME= 13:55:15
 Max.  Initial penetration 1.97778232E-04 was detected between contact   
 element 10842 and target element 10757.                                 
 You may move entire target surface by : x= -1.363101031E-04, y=         
 1.433028354E-04, z= -2.867509781E-07,to reduce initial penetration.     
 ****************************************
  

 *** WARNING ***                         CP =       1.312   TIME= 13:55:15
 Maximum friction coefficient 0.5 is defined in the model.  Switch to    
 the unsymmetric solver (NROP,UNSYM) instead if convergence difficulty   
 is encountered.                                                         
  
  

  
  
     D I S T R I B U T E D   D O M A I N   D E C O M P O S E R
  
  ...Number of elements: 6581
  ...Number of nodes:    26241
  ...Decompose to 2 CPU domains
  ...Element load balance ratio =     1.022


                      L O A D   S T E P   O P T I O N S

   LOAD STEP NUMBER. . . . . . . . . . . . . . . .     1
   TIME AT END OF THE LOAD STEP. . . . . . . . . .  1.0000    
   AUTOMATIC TIME STEPPING . . . . . . . . . . . .    ON
      INITIAL NUMBER OF SUBSTEPS . . . . . . . . .     5
      MAXIMUM NUMBER OF SUBSTEPS . . . . . . . . .    20
      MINIMUM NUMBER OF SUBSTEPS . . . . . . . . .     1
   MAXIMUM NUMBER OF EQUILIBRIUM ITERATIONS. . . .    15
   STEP CHANGE BOUNDARY CONDITIONS . . . . . . . .    NO
   TERMINATE ANALYSIS IF NOT CONVERGED . . . . . .YES (EXIT)  
   CONVERGENCE CONTROLS. . . . . . . . . . . . . .USE DEFAULTS
   PRINT OUTPUT CONTROLS . . . . . . . . . . . . .NO PRINTOUT
   DATABASE OUTPUT CONTROLS
      ITEM     FREQUENCY   COMPONENT
       ALL       NONE               
      NSOL       LAST               
      RSOL       LAST               
      EANG       LAST               
      ETMP       LAST               
      VENG       LAST               
      NLOA       LAST               
      STRS       LAST               
      SRFS       LAST               
      BKST       LAST               
      EPEL       LAST               
      EPPL       LAST               
      EPTH       LAST               
      MISC       LAST       _ALLCONTACTS
      CONT       LAST               
      NLDA       LAST               


 SOLUTION MONITORING INFO IS WRITTEN TO FILE= file.mntr                                                                                                                                                                                                                                                           

 >>>> PRETENSION ELEMENT STATUS <<<<
 SECTION NAME     PT.NODE  --------STATUS--------------------  ----LOAD SOURCE----
    22              26098  APPLIED PRELOAD FORCE=  1160.0      F COMMAND

 *** NOTE ***                            CP =       1.625   TIME= 13:55:15
 Symmetric Deformable- deformable contact pair identified by real        
 constant set 15 and contact element type 15 has been set up.  The       
 companion pair has real constant set ID 16.  Both pairs should have     
 the same behavior.                                                      
 ANSYS will deactivate the current pair and keep its companion pair,     
 resulting in asymmetric contact.                                        
 Contact algorithm: Augmented Lagrange method
 Contact detection at: Gauss integration point
 Contact stiffness factor FKN                  1.0000    
 The resulting initial contact stiffness      0.44796E+10
 Default penetration tolerance factor FTOLN   0.10000    
 The resulting penetration tolerance          0.12948E-01
 Frictionless contact pair is defined
 Update contact stiffness at each iteration
 Average contact surface length               0.23884    
 Average contact pair depth                   0.12948    
 Default pinball region factor PINB            1.0000    
 The resulting pinball region                 0.12948    
 *WARNING*: Initial penetration is included.

 *** NOTE ***                            CP =       1.625   TIME= 13:55:15
 Max.  Initial penetration 1.421085472E-14 was detected between contact  
 element 10707 and target element 10735.                                 
 ****************************************
  

 *** NOTE ***                            CP =       1.625   TIME= 13:55:15
 Symmetric Deformable- deformable contact pair identified by real        
 constant set 16 and contact element type 15 has been set up.  The       
 companion pair has real constant set ID 15.  Both pairs should have     
 the same behavior.                                                      
 ANSYS will keep the current pair and deactivate its companion pair,     
 resulting in asymmetric contact.                                        
 Contact algorithm: Augmented Lagrange method
 Contact detection at: Gauss integration point
 Contact stiffness factor FKN                  1.0000    
 The resulting initial contact stiffness      0.44796E+10
 Default penetration tolerance factor FTOLN   0.10000    
 The resulting penetration tolerance          0.44544E-02
 Frictionless contact pair is defined
 Update contact stiffness at each iteration
 Average contact surface length               0.66543E-01
 Average contact pair depth                   0.44544E-01
 Default pinball region factor PINB            1.0000    
 The resulting pinball region                 0.44544E-01
 *WARNING*: Initial penetration is included.

 *** NOTE ***                            CP =       1.625   TIME= 13:55:15
 Max.  Initial penetration 2.842170943E-14 was detected between contact  
 element 10711 and target element 10690.                                 
 ****************************************
  

 *** NOTE ***                            CP =       1.625   TIME= 13:55:15
 Symmetric Deformable- deformable contact pair identified by real        
 constant set 17 and contact element type 17 has been set up.  The       
 companion pair has real constant set ID 18.  Both pairs should have     
 the same behavior.                                                      
 ANSYS will keep the current pair and deactivate its companion pair,     
 resulting in asymmetric contact.                                        
 Contact algorithm: Augmented Lagrange method
 Contact detection at: Gauss integration point
 Contact stiffness factor FKN                  1.0000    
 The resulting initial contact stiffness      0.28827E+10
 Default penetration tolerance factor FTOLN   0.10000    
 The resulting penetration tolerance          0.49803E-02
 Frictionless contact pair is defined
 Update contact stiffness at each iteration
 Average contact surface length               0.70374E-01
 Average contact pair depth                   0.49803E-01
 Default pinball region factor PINB            1.0000    
 The resulting pinball region                 0.49803E-01
 *WARNING*: Initial penetration is included.

 *** NOTE ***                            CP =       1.625   TIME= 13:55:15
 Max.  Initial penetration 2.205810488E-04 was detected between contact  
 element 10806 and target element 10858.                                 
 You may move entire target surface by : x= 1.576736508E-04, y=          
 -1.542563417E-04, z= 9.627013701E-11,to reduce initial penetration.     
 ****************************************
  

 *** NOTE ***                            CP =       1.625   TIME= 13:55:15
 Symmetric Deformable- deformable contact pair identified by real        
 constant set 18 and contact element type 17 has been set up.  The       
 companion pair has real constant set ID 17.  Both pairs should have     
 the same behavior.                                                      
 ANSYS will deactivate the current pair and keep its companion pair,     
 resulting in asymmetric contact.                                        
 Contact algorithm: Augmented Lagrange method
 Contact detection at: Gauss integration point
 Contact stiffness factor FKN                  1.0000    
 The resulting initial contact stiffness      0.28827E+10
 Default penetration tolerance factor FTOLN   0.10000    
 The resulting penetration tolerance          0.20120E-01
 Frictionless contact pair is defined
 Update contact stiffness at each iteration
 Average contact surface length               0.13542    
 Average contact pair depth                   0.20120    
 Default pinball region factor PINB            1.0000    
 The resulting pinball region                 0.20120    
 *WARNING*: Initial penetration is included.

 *** NOTE ***                            CP =       1.625   TIME= 13:55:15
 Max.  Initial penetration 1.97778232E-04 was detected between contact   
 element 10842 and target element 10757.                                 
 You may move entire target surface by : x= -1.363101031E-04, y=         
 1.433028354E-04, z= -2.867509781E-07,to reduce initial penetration.     
 ****************************************
  
 MAXIMUM NUMBER OF EQUILIBRIUM ITERATIONS HAS BEEN MODIFIED              
  TO BE, NEQIT = 26, BY SOLUTION CONTROL LOGIC.                          

  
 The FEA model contains 0 external CE equations and 141 internal CE      
 equations.                                                              
  
 *************************************************
  SUMMARY FOR CONTACT PAIR IDENTIFIED BY REAL CONSTANT SET          15

 *** NOTE ***                            CP =       2.156   TIME= 13:55:16
 Contact pair is inactive.                                               
  
 *************************************************
  SUMMARY FOR CONTACT PAIR IDENTIFIED BY REAL CONSTANT SET          16
 Max.  Penetration of -2.842170943E-14 has been detected between contact 
 element 10711 and target element 10690.                                 
 For total 16 contact elements, there are 16 elements are in contact.    
 Contacting area 4.742167693E-02.                                        
 Max.  Pinball distance 4.454379886E-02.                                 
 One of the contact searching regions contains at least 6 target         
 elements.                                                               
 Max.  Pressure/force 3.818944586E-05.                                   
 Max.  Normal stiffness 1.343671673E+09.                                 
 Min.  Normal stiffness 1.343671673E+09.                                 
 Contact pair force norm 1.844553905E-07 and criterion 1.844553933E-08.  
 *************************************************
  
 *************************************************
  SUMMARY FOR CONTACT PAIR IDENTIFIED BY REAL CONSTANT SET          17
 Max.  Penetration of -2.205810488E-04 has been detected between contact 
 element 10806 and target element 10858.                                 
 For total 49 contact elements, there are 48 elements are in contact.    
 Contacting area 0.141446929.                                            
 Max.  Pinball distance 4.98027323E-02.                                  
 One of the contact searching regions contains at least 13 target        
 elements.                                                               
 Max.  Pressure/force 225363.038.                                        
 Max.  Normal stiffness 1.021679055E+09.                                 
 Min.  Normal stiffness 1.021679055E+09.                                 
 Contact pair force norm 4562.11638 and criterion 456.211645.            
 *************************************************
  
 *************************************************
  SUMMARY FOR CONTACT PAIR IDENTIFIED BY REAL CONSTANT SET          18

 *** NOTE ***                            CP =       2.156   TIME= 13:55:16
 Contact pair is inactive.                                               

 Range of element maximum matrix coefficients in global coordinates
 Maximum = 1.096904474E+09 at element 2287.                              
 Minimum = 1.419175339E-03 at element 12676.                             

 *** WARNING ***                         CP =       2.156   TIME= 13:55:16
 Coefficient ratio exceeds 1.0e8 - Check results.                        

   *** ELEMENT MATRIX FORMULATION TIMES
     TYPE    NUMBER   ENAME      TOTAL CP  AVE CP

        1        16  SOLID187      0.000   0.000000
        2      1695  SOLID186      0.266   0.000157
        3        56  SOLID187      0.000   0.000000
        4      1851  SOLID186      0.234   0.000127
        5        45  SOLID187      0.000   0.000000
        6       415  SOLID186      0.062   0.000151
        7        22  SOLID187      0.000   0.000000
        8       131  SOLID186      0.016   0.000119
        9        98  CONTA174      0.000   0.000000
       10        98  TARGE170      0.000   0.000000
       11        46  CONTA174      0.000   0.000000
       12        46  TARGE170      0.000   0.000000
       13        29  CONTA174      0.000   0.000000
       14        29  TARGE170      0.000   0.000000
       15        35  CONTA174      0.000   0.000000
       16        35  TARGE170      0.000   0.000000
       17        65  CONTA174      0.016   0.000240
       18        65  TARGE170      0.000   0.000000
       19      1649  SURF154       0.062   0.000038
       20         6  SURF154       0.000   0.000000
       21         6  SURF154       0.000   0.000000
       22        47  PRETS179      0.000   0.000000
       23        96  COMBIN14      0.000   0.000000
 Time at end of element matrix formulation CP = 2.15625.                 

 ALL CURRENT ANSYS DATA WRITTEN TO FILE NAME= file.rdb
  FOR POSSIBLE RESUME FROM THIS POINT
     FORCE CONVERGENCE VALUE  =   2708.      CRITERION=   1.572    

 DISTRIBUTED SPARSE MATRIX DIRECT SOLVER.
  Number of equations =       68973,    Maximum wavefront =    381

  Local memory allocated for solver              =    137.964 MB
  Local memory required for in-core solution     =    133.076 MB
  Local memory required for out-of-core solution =     91.836 MB

  Total memory allocated for solver              =    289.775 MB
  Total memory required for in-core solution     =    279.307 MB
  Total memory required for out-of-core solution =    190.766 MB

 *** NOTE ***                            CP =       2.641   TIME= 13:55:16
 The Distributed Sparse Matrix Solver is currently running in the        
 in-core memory mode.  This memory mode uses the most amount of memory   
 in order to avoid using the hard drive as much as possible, which most  
 often results in the fastest solution time.  This mode is recommended   
 if enough physical memory is present to accommodate all of the solver   
 data.                                                                   
 curEqn=  30275  totEqn=  30275 Job CP sec=      2.953
      Factor Done= 100% Factor Wall sec=      0.135 rate=   14477.6 Mflops
 Distributed sparse solver maximum pivot= 719487844 at node 13666 UX.    
 Distributed sparse solver minimum pivot= 39072.8683 at node 5899 UY.    
 Distributed sparse solver minimum pivot in absolute value= 39072.8683   
 at node 5899 UY.                                                        
     DISP CONVERGENCE VALUE   =  0.2506E-03  CRITERION=  0.1279E-04
    EQUIL ITER   1 COMPLETED.  NEW TRIANG MATRIX.  MAX DOF INC=  0.2506E-03
     DISP CONVERGENCE VALUE   =  0.2212E-03  CRITERION=  0.2050E-04
     LINE SEARCH PARAMETER =  0.8827     SCALED MAX DOF INC =  0.2212E-03
     FORCE CONVERGENCE VALUE  =   348.9      CRITERION=   1.473    
    EQUIL ITER   2 COMPLETED.  NEW TRIANG MATRIX.  MAX DOF INC=  0.1099E-03
     DISP CONVERGENCE VALUE   =  0.1098E-03  CRITERION=  0.2092E-04
     LINE SEARCH PARAMETER =  0.9986     SCALED MAX DOF INC =  0.1098E-03
     FORCE CONVERGENCE VALUE  =   18.90      CRITERION=   1.319    
    EQUIL ITER   3 COMPLETED.  NEW TRIANG MATRIX.  MAX DOF INC= -0.7328E-05
     DISP CONVERGENCE VALUE   =  0.7328E-05  CRITERION=  0.2134E-04 <<< CONVERGED
     LINE SEARCH PARAMETER =   1.000     SCALED MAX DOF INC = -0.7328E-05
     FORCE CONVERGENCE VALUE  =   7.591      CRITERION=   1.349    
    EQUIL ITER   4 COMPLETED.  NEW TRIANG MATRIX.  MAX DOF INC= -0.3206E-04
     DISP CONVERGENCE VALUE   =  0.3206E-04  CRITERION=  0.2178E-04
     LINE SEARCH PARAMETER =   1.000     SCALED MAX DOF INC = -0.3206E-04
     FORCE CONVERGENCE VALUE  =   4.095      CRITERION=   1.374    
    EQUIL ITER   5 COMPLETED.  NEW TRIANG MATRIX.  MAX DOF INC= -0.7023E-05
     DISP CONVERGENCE VALUE   =  0.7021E-05  CRITERION=  0.2222E-04 <<< CONVERGED
     LINE SEARCH PARAMETER =  0.9998     SCALED MAX DOF INC = -0.7021E-05
     FORCE CONVERGENCE VALUE  =  0.5751E-01  CRITERION=   1.402     <<< CONVERGED
    >>> SOLUTION CONVERGED AFTER EQUILIBRIUM ITERATION   5

   *** ELEMENT RESULT CALCULATION TIMES
     TYPE    NUMBER   ENAME      TOTAL CP  AVE CP

        1        16  SOLID187      0.000   0.000000
        2      1695  SOLID186      0.125   0.000074
        3        56  SOLID187      0.000   0.000000
        4      1851  SOLID186      0.125   0.000068
        5        45  SOLID187      0.000   0.000000
        6       415  SOLID186      0.078   0.000188
        7        22  SOLID187      0.000   0.000000
        8       131  SOLID186      0.000   0.000000
        9        98  CONTA174      0.000   0.000000
       11        46  CONTA174      0.000   0.000000
       13        29  CONTA174      0.000   0.000000
       15        35  CONTA174      0.000   0.000000
       17        65  CONTA174      0.000   0.000000
       19      1649  SURF154       0.062   0.000038
       20         6  SURF154       0.000   0.000000
       21         6  SURF154       0.000   0.000000
       23        96  COMBIN14      0.000   0.000000

   *** NODAL LOAD CALCULATION TIMES
     TYPE    NUMBER   ENAME      TOTAL CP  AVE CP

        1        16  SOLID187      0.000   0.000000
        2      1695  SOLID186      0.000   0.000000
        3        56  SOLID187      0.000   0.000000
        4      1851  SOLID186      0.000   0.000000
        5        45  SOLID187      0.000   0.000000
        6       415  SOLID186      0.000   0.000000
        7        22  SOLID187      0.000   0.000000
        8       131  SOLID186      0.000   0.000000
        9        98  CONTA174      0.000   0.000000
       11        46  CONTA174      0.000   0.000000
       13        29  CONTA174      0.000   0.000000
       15        35  CONTA174      0.000   0.000000
       17        65  CONTA174      0.000   0.000000
       19      1649  SURF154       0.000   0.000000
       20         6  SURF154       0.000   0.000000
       21         6  SURF154       0.000   0.000000
       23        96  COMBIN14      0.000   0.000000
 *** LOAD STEP     1   SUBSTEP     1  COMPLETED.    CUM ITER =      5
 *** TIME =  0.200000         TIME INC =  0.200000    
 *** AUTO STEP TIME:  NEXT TIME INC = 0.20000      UNCHANGED

     FORCE CONVERGENCE VALUE  =   250.4      CRITERION=   2.532    
     DISP CONVERGENCE VALUE   =  0.7235E-04  CRITERION=  0.2009E-04
    EQUIL ITER   1 COMPLETED.  NEW TRIANG MATRIX.  MAX DOF INC= -0.7235E-04
     DISP CONVERGENCE VALUE   =  0.6429E-04  CRITERION=  0.2050E-04
     LINE SEARCH PARAMETER =  0.8886     SCALED MAX DOF INC = -0.6429E-04
     FORCE CONVERGENCE VALUE  =   32.61      CRITERION=   2.477    
    EQUIL ITER   2 COMPLETED.  NEW TRIANG MATRIX.  MAX DOF INC= -0.1223E-04
     DISP CONVERGENCE VALUE   =  0.1219E-04  CRITERION=  0.2092E-04 <<< CONVERGED
     LINE SEARCH PARAMETER =  0.9970     SCALED MAX DOF INC = -0.1219E-04
     FORCE CONVERGENCE VALUE  =  0.3404      CRITERION=   2.526     <<< CONVERGED
    >>> SOLUTION CONVERGED AFTER EQUILIBRIUM ITERATION   2
 *** LOAD STEP     1   SUBSTEP     2  COMPLETED.    CUM ITER =      7
 *** TIME =  0.400000         TIME INC =  0.200000    
 *** AUTO TIME STEP:  NEXT TIME INC = 0.30000      INCREASED (FACTOR = 1.5000)

     FORCE CONVERGENCE VALUE  =   5.572      CRITERION=   4.214    
     DISP CONVERGENCE VALUE   =  0.2988E-05  CRITERION=  0.2351E-04 <<< CONVERGED
    EQUIL ITER   1 COMPLETED.  NEW TRIANG MATRIX.  MAX DOF INC=  0.2988E-05
     DISP CONVERGENCE VALUE   =  0.2988E-05  CRITERION=  0.2399E-04 <<< CONVERGED
     LINE SEARCH PARAMETER =  0.9999     SCALED MAX DOF INC =  0.2988E-05
     FORCE CONVERGENCE VALUE  =  0.1336E-01  CRITERION=   4.300     <<< CONVERGED
    >>> SOLUTION CONVERGED AFTER EQUILIBRIUM ITERATION   1
 *** LOAD STEP     1   SUBSTEP     3  COMPLETED.    CUM ITER =      8
 *** TIME =  0.700000         TIME INC =  0.300000    
 *** AUTO STEP TIME:  NEXT TIME INC = 0.30000      UNCHANGED

     FORCE CONVERGENCE VALUE  =   9.547      CRITERION=   6.015    
     DISP CONVERGENCE VALUE   =  0.3784E-05  CRITERION=  0.2351E-04 <<< CONVERGED
    EQUIL ITER   1 COMPLETED.  NEW TRIANG MATRIX.  MAX DOF INC=  0.3784E-05
     DISP CONVERGENCE VALUE   =  0.3784E-05  CRITERION=  0.2399E-04 <<< CONVERGED
     LINE SEARCH PARAMETER =   1.000     SCALED MAX DOF INC =  0.3784E-05
     FORCE CONVERGENCE VALUE  =  0.5855      CRITERION=   6.138     <<< CONVERGED
    >>> SOLUTION CONVERGED AFTER EQUILIBRIUM ITERATION   1
 *** LOAD STEP     1   SUBSTEP     4  COMPLETED.    CUM ITER =      9
 *** TIME =   1.00000         TIME INC =  0.300000    


 *** ANSYS BINARY FILE STATISTICS
  BUFFER SIZE USED= 16384
        0.375 MB WRITTEN ON ELEMENT MATRIX FILE: file0.emat
       15.375 MB WRITTEN ON ELEMENT SAVED DATA FILE: file0.esav
       27.562 MB WRITTEN ON ASSEMBLED MATRIX FILE: file0.full
        4.062 MB WRITTEN ON RESULTS FILE: file0.rst
 *************** Write FE CONNECTORS *********

 WRITE OUT CONSTRAINT EQUATIONS TO FILE= file.ce                                                                                                                                                                                                                                                             
 ****************************************************
 *************** FINISHED SOLVE FOR LS 1 *************
 ****************************************************
 ******************* SOLVE FOR LS 2 OF 3 ****************

 ALL SELECT   FOR ITEM=ELEM COMPONENT=    
  IN RANGE         1 TO      12676 STEP          1

       6581  ELEMENTS (OF       6581  DEFINED) SELECTED BY  ESEL  COMMAND.

 PRINTOUT RESUMED BY /GOP

 DELETE ALL SPECIFIED NODAL LOADS FROM NODE     26098 TO     26098 BY       1

 NUMBER OF NODAL LOADS DELETED=       1

 *** WARNING ***                         CP =      14.984   TIME= 13:55:29
 Table _FIX is an ANSYS reserved table name.  It is used to constrain    
 structural degrees of freedom to their current displaced status.  This  
 table should not be used for other purposes.                            

 SPECIFIED CONSTRAINT UX   FOR SELECTED NODES        26098 TO       26098 BY           1
 SET ACCORDING TO TABLE PARAMETER = _FIX    

 USE AUTOMATIC TIME STEPPING THIS LOAD STEP

 USE       5 SUBSTEPS INITIALLY THIS LOAD STEP FOR ALL  DEGREES OF FREEDOM
 FOR AUTOMATIC TIME STEPPING:
   USE     20 SUBSTEPS AS A MAXIMUM
   USE      1 SUBSTEPS AS A MINIMUM

 TIME=  2.0000    

 ERASE THE CURRENT DATABASE OUTPUT CONTROL TABLE.


 WRITE ALL  ITEMS TO THE DATABASE WITH A FREQUENCY OF NONE
   FOR ALL APPLICABLE ENTITIES

 WRITE NSOL ITEMS TO THE DATABASE WITH A FREQUENCY OF ALL 
   FOR ALL APPLICABLE ENTITIES

 WRITE RSOL ITEMS TO THE DATABASE WITH A FREQUENCY OF ALL 
   FOR ALL APPLICABLE ENTITIES

 WRITE EANG ITEMS TO THE DATABASE WITH A FREQUENCY OF ALL 
   FOR ALL APPLICABLE ENTITIES

 WRITE ETMP ITEMS TO THE DATABASE WITH A FREQUENCY OF ALL 
   FOR ALL APPLICABLE ENTITIES

 WRITE VENG ITEMS TO THE DATABASE WITH A FREQUENCY OF ALL 
   FOR ALL APPLICABLE ENTITIES

 WRITE NLOA ITEMS TO THE DATABASE WITH A FREQUENCY OF ALL 
   FOR ALL APPLICABLE ENTITIES

 WRITE STRS ITEMS TO THE DATABASE WITH A FREQUENCY OF ALL 
   FOR ALL APPLICABLE ENTITIES

 WRITE SRFS ITEMS TO THE DATABASE WITH A FREQUENCY OF ALL 
   FOR ALL APPLICABLE ENTITIES

 WRITE BKST ITEMS TO THE DATABASE WITH A FREQUENCY OF ALL 
   FOR ALL APPLICABLE ENTITIES

 WRITE EPEL ITEMS TO THE DATABASE WITH A FREQUENCY OF ALL 
   FOR ALL APPLICABLE ENTITIES

 WRITE EPPL ITEMS TO THE DATABASE WITH A FREQUENCY OF ALL 
   FOR ALL APPLICABLE ENTITIES

 WRITE EPTH ITEMS TO THE DATABASE WITH A FREQUENCY OF ALL 
   FOR ALL APPLICABLE ENTITIES

 WRITE MISC ITEMS TO THE DATABASE WITH A FREQUENCY OF ALL 
   FOR THE ENTITIES DEFINED BY COMPONENT _ALLCONTACTS

 WRITE CONT ITEMS TO THE DATABASE WITH A FREQUENCY OF ALL 
   FOR ALL APPLICABLE ENTITIES

 WRITE NLDA ITEMS TO THE DATABASE WITH A FREQUENCY OF ALL 
   FOR ALL APPLICABLE ENTITIES

 *****  ANSYS SOLVE    COMMAND  *****

 *** WARNING ***                         CP =      14.984   TIME= 13:55:29
 Material number 19 (used by element 10873) should normally have at      
 least one MP or one TB type command associated with it.  Output of      
 energy by material may not be available.                                

 *** NOTE ***                            CP =      15.000   TIME= 13:55:29
 The step data was checked and warning messages were found.              
  Please review output or errors file (                                  
 C:\Users\Shiv\Documents\ANSYS\_ProjectScratch\Scr34E4\file0.err ) for   
 these warning messages.                                                 

 *** NOTE ***                            CP =      15.000   TIME= 13:55:29
 This nonlinear analysis defaults to using the full Newton-Raphson       
 solution procedure.  This can be modified using the NROPT command.      

 *** ANSYS - ENGINEERING ANALYSIS SYSTEM  RELEASE 2021 R1          21.1     ***
 DISTRIBUTED ANSYS Mechanical Enterprise Academic Student      

 00000000  VERSION=WINDOWS x64   13:55:29  JUN 11, 2021 CP=     15.078

 Bolted Nozzle Flange--Static Structural (B5)                                  



                      L O A D   S T E P   O P T I O N S

   LOAD STEP NUMBER. . . . . . . . . . . . . . . .     2
   TIME AT END OF THE LOAD STEP. . . . . . . . . .  2.0000    
   AUTOMATIC TIME STEPPING . . . . . . . . . . . .    ON
      INITIAL NUMBER OF SUBSTEPS . . . . . . . . .     5
      MAXIMUM NUMBER OF SUBSTEPS . . . . . . . . .    20
      MINIMUM NUMBER OF SUBSTEPS . . . . . . . . .     1
   MAXIMUM NUMBER OF EQUILIBRIUM ITERATIONS. . . .    15
   STEP CHANGE BOUNDARY CONDITIONS . . . . . . . .    NO
   TERMINATE ANALYSIS IF NOT CONVERGED . . . . . .YES (EXIT)  
   CONVERGENCE CONTROLS. . . . . . . . . . . . . .USE DEFAULTS
   PRINT OUTPUT CONTROLS . . . . . . . . . . . . .NO PRINTOUT
   DATABASE OUTPUT CONTROLS
      ITEM     FREQUENCY   COMPONENT
       ALL       NONE               
      NSOL        ALL               
      RSOL        ALL               
      EANG        ALL               
      ETMP        ALL               
      VENG        ALL               
      NLOA        ALL               
      STRS        ALL               
      SRFS        ALL               
      BKST        ALL               
      EPEL        ALL               
      EPPL        ALL               
      EPTH        ALL               
      MISC        ALL       _ALLCONTACTS
      CONT        ALL               
      NLDA        ALL               


 SOLUTION MONITORING INFO IS WRITTEN TO FILE= file.mntr                                                                                                                                                                                                                                                           

 >>>> PRETENSION ELEMENT STATUS <<<<
 SECTION NAME     PT.NODE  --------STATUS--------------------  ----LOAD SOURCE----
    22              26098  FIXED RELATIVE MOTION= 0.15582E-02  D COMMAND
 MAXIMUM NUMBER OF EQUILIBRIUM ITERATIONS HAS BEEN MODIFIED              
  TO BE, NEQIT = 26, BY SOLUTION CONTROL LOGIC.                          

     FORCE CONVERGENCE VALUE  =   104.6      CRITERION=   6.038    
     DISP CONVERGENCE VALUE   =  0.1685E-02  CRITERION=  0.8597E-04
    EQUIL ITER   1 COMPLETED.  NEW TRIANG MATRIX.  MAX DOF INC=  0.1685E-02
     DISP CONVERGENCE VALUE   =  0.1685E-02  CRITERION=  0.8773E-04
     LINE SEARCH PARAMETER =   1.000     SCALED MAX DOF INC =  0.1685E-02
     FORCE CONVERGENCE VALUE  =   124.6      CRITERION=   12.48    
    EQUIL ITER   2 COMPLETED.  NEW TRIANG MATRIX.  MAX DOF INC= -0.2227E-03
     DISP CONVERGENCE VALUE   =  0.2227E-03  CRITERION=  0.9106E-04
     LINE SEARCH PARAMETER =   1.000     SCALED MAX DOF INC = -0.2227E-03
     FORCE CONVERGENCE VALUE  =   57.63      CRITERION=   12.78    
    EQUIL ITER   3 COMPLETED.  NEW TRIANG MATRIX.  MAX DOF INC= -0.1084E-03
     DISP CONVERGENCE VALUE   =  0.1084E-03  CRITERION=  0.9366E-04
     LINE SEARCH PARAMETER =  0.9994     SCALED MAX DOF INC = -0.1084E-03
     FORCE CONVERGENCE VALUE  =  0.4209      CRITERION=   13.06     <<< CONVERGED
    EQUIL ITER   4 COMPLETED.  NEW TRIANG MATRIX.  MAX DOF INC=  0.3395E-06
     DISP CONVERGENCE VALUE   =  0.3393E-06  CRITERION=  0.9557E-04 <<< CONVERGED
     LINE SEARCH PARAMETER =  0.9994     SCALED MAX DOF INC =  0.3393E-06
    >>> SOLUTION CONVERGED AFTER EQUILIBRIUM ITERATION   4
 *** LOAD STEP     2   SUBSTEP     1  COMPLETED.    CUM ITER =     13
 *** TIME =   1.20000         TIME INC =  0.200000    
 *** AUTO STEP TIME:  NEXT TIME INC = 0.20000      UNCHANGED

     FORCE CONVERGENCE VALUE  =   424.2      CRITERION=   22.23    
     DISP CONVERGENCE VALUE   =  0.4791E-03  CRITERION=  0.9115E-04
    EQUIL ITER   1 COMPLETED.  NEW TRIANG MATRIX.  MAX DOF INC= -0.4791E-03
     DISP CONVERGENCE VALUE   =  0.4791E-03  CRITERION=  0.9301E-04
     LINE SEARCH PARAMETER =   1.000     SCALED MAX DOF INC = -0.4791E-03
     FORCE CONVERGENCE VALUE  =   73.54      CRITERION=   22.78    
    EQUIL ITER   2 COMPLETED.  NEW TRIANG MATRIX.  MAX DOF INC= -0.7797E-04
     DISP CONVERGENCE VALUE   =  0.7797E-04  CRITERION=  0.9526E-04 <<< CONVERGED
     LINE SEARCH PARAMETER =   1.000     SCALED MAX DOF INC = -0.7797E-04
     FORCE CONVERGENCE VALUE  =   25.54      CRITERION=   23.27    
    EQUIL ITER   3 COMPLETED.  NEW TRIANG MATRIX.  MAX DOF INC= -0.5735E-05
     DISP CONVERGENCE VALUE   =  0.5735E-05  CRITERION=  0.9721E-04 <<< CONVERGED
     LINE SEARCH PARAMETER =   1.000     SCALED MAX DOF INC = -0.5735E-05
     FORCE CONVERGENCE VALUE  =  0.9706E-02  CRITERION=   23.74     <<< CONVERGED
    >>> SOLUTION CONVERGED AFTER EQUILIBRIUM ITERATION   3
 *** LOAD STEP     2   SUBSTEP     2  COMPLETED.    CUM ITER =     16
 *** TIME =   1.40000         TIME INC =  0.200000    
 *** AUTO TIME STEP:  NEXT TIME INC = 0.30000      INCREASED (FACTOR = 1.5000)

     FORCE CONVERGENCE VALUE  =   666.4      CRITERION=   38.14    
     DISP CONVERGENCE VALUE   =  0.4852E-03  CRITERION=  0.1396E-03
    EQUIL ITER   1 COMPLETED.  NEW TRIANG MATRIX.  MAX DOF INC= -0.4852E-03
     DISP CONVERGENCE VALUE   =  0.4852E-03  CRITERION=  0.1424E-03
     LINE SEARCH PARAMETER =   1.000     SCALED MAX DOF INC = -0.4852E-03
     FORCE CONVERGENCE VALUE  =   97.97      CRITERION=   39.03    
    EQUIL ITER   2 COMPLETED.  NEW TRIANG MATRIX.  MAX DOF INC= -0.1011E-03
     DISP CONVERGENCE VALUE   =  0.1011E-03  CRITERION=  0.1457E-03 <<< CONVERGED
     LINE SEARCH PARAMETER =   1.000     SCALED MAX DOF INC = -0.1011E-03
     FORCE CONVERGENCE VALUE  =   1.496      CRITERION=   39.86     <<< CONVERGED
    >>> SOLUTION CONVERGED AFTER EQUILIBRIUM ITERATION   2
 *** LOAD STEP     2   SUBSTEP     3  COMPLETED.    CUM ITER =     18
 *** TIME =   1.70000         TIME INC =  0.300000    
 *** AUTO STEP TIME:  NEXT TIME INC = 0.30000      UNCHANGED

     FORCE CONVERGENCE VALUE  =   184.1      CRITERION=   54.36    
     DISP CONVERGENCE VALUE   =  0.3754E-03  CRITERION=  0.1415E-03
    EQUIL ITER   1 COMPLETED.  NEW TRIANG MATRIX.  MAX DOF INC= -0.3754E-03
     DISP CONVERGENCE VALUE   =  0.3754E-03  CRITERION=  0.1444E-03
     LINE SEARCH PARAMETER =   1.000     SCALED MAX DOF INC = -0.3754E-03
     FORCE CONVERGENCE VALUE  =   43.28      CRITERION=   55.59     <<< CONVERGED
    EQUIL ITER   2 COMPLETED.  NEW TRIANG MATRIX.  MAX DOF INC= -0.3895E-04
     DISP CONVERGENCE VALUE   =  0.3894E-04  CRITERION=  0.1474E-03 <<< CONVERGED
     LINE SEARCH PARAMETER =  0.9997     SCALED MAX DOF INC = -0.3894E-04
     FORCE CONVERGENCE VALUE  =  0.5291      CRITERION=   56.74     <<< CONVERGED
    >>> SOLUTION CONVERGED AFTER EQUILIBRIUM ITERATION   2
 *** LOAD STEP     2   SUBSTEP     4  COMPLETED.    CUM ITER =     20
 *** TIME =   2.00000         TIME INC =  0.300000    
 ****************************************************
 *************** FINISHED SOLVE FOR LS 2 *************
 ****************************************************
 ******************* SOLVE FOR LS 3 OF 3 ****************

 ALL SELECT   FOR ITEM=ELEM COMPONENT=    
  IN RANGE         1 TO      12676 STEP          1

       6581  ELEMENTS (OF       6581  DEFINED) SELECTED BY  ESEL  COMMAND.

 PRINTOUT RESUMED BY /GOP

 DELETE ALL SPECIFIED NODAL LOADS FROM NODE     26098 TO     26098 BY       1

 NUMBER OF NODAL LOADS DELETED=       0

 SPECIFIED CONSTRAINT UX   FOR SELECTED NODES        26098 TO       26098 BY           1
 SET ACCORDING TO TABLE PARAMETER = _FIX    

 USE AUTOMATIC TIME STEPPING THIS LOAD STEP

 USE       5 SUBSTEPS INITIALLY THIS LOAD STEP FOR ALL  DEGREES OF FREEDOM
 FOR AUTOMATIC TIME STEPPING:
   USE     20 SUBSTEPS AS A MAXIMUM
   USE      1 SUBSTEPS AS A MINIMUM

 TIME=  3.0000    

 ERASE THE CURRENT DATABASE OUTPUT CONTROL TABLE.


 WRITE ALL  ITEMS TO THE DATABASE WITH A FREQUENCY OF NONE
   FOR ALL APPLICABLE ENTITIES

 WRITE NSOL ITEMS TO THE DATABASE WITH A FREQUENCY OF ALL 
   FOR ALL APPLICABLE ENTITIES

 WRITE RSOL ITEMS TO THE DATABASE WITH A FREQUENCY OF ALL 
   FOR ALL APPLICABLE ENTITIES

 WRITE EANG ITEMS TO THE DATABASE WITH A FREQUENCY OF ALL 
   FOR ALL APPLICABLE ENTITIES

 WRITE ETMP ITEMS TO THE DATABASE WITH A FREQUENCY OF ALL 
   FOR ALL APPLICABLE ENTITIES

 WRITE VENG ITEMS TO THE DATABASE WITH A FREQUENCY OF ALL 
   FOR ALL APPLICABLE ENTITIES

 WRITE NLOA ITEMS TO THE DATABASE WITH A FREQUENCY OF ALL 
   FOR ALL APPLICABLE ENTITIES

 WRITE STRS ITEMS TO THE DATABASE WITH A FREQUENCY OF ALL 
   FOR ALL APPLICABLE ENTITIES

 WRITE SRFS ITEMS TO THE DATABASE WITH A FREQUENCY OF ALL 
   FOR ALL APPLICABLE ENTITIES

 WRITE BKST ITEMS TO THE DATABASE WITH A FREQUENCY OF ALL 
   FOR ALL APPLICABLE ENTITIES

 WRITE EPEL ITEMS TO THE DATABASE WITH A FREQUENCY OF ALL 
   FOR ALL APPLICABLE ENTITIES

 WRITE EPPL ITEMS TO THE DATABASE WITH A FREQUENCY OF ALL 
   FOR ALL APPLICABLE ENTITIES

 WRITE EPTH ITEMS TO THE DATABASE WITH A FREQUENCY OF ALL 
   FOR ALL APPLICABLE ENTITIES

 WRITE MISC ITEMS TO THE DATABASE WITH A FREQUENCY OF ALL 
   FOR THE ENTITIES DEFINED BY COMPONENT _ALLCONTACTS

 WRITE CONT ITEMS TO THE DATABASE WITH A FREQUENCY OF ALL 
   FOR ALL APPLICABLE ENTITIES

 WRITE NLDA ITEMS TO THE DATABASE WITH A FREQUENCY OF ALL 
   FOR ALL APPLICABLE ENTITIES

 *****  ANSYS SOLVE    COMMAND  *****

 *** WARNING ***                         CP =      31.000   TIME= 13:55:45
 Material number 19 (used by element 10873) should normally have at      
 least one MP or one TB type command associated with it.  Output of      
 energy by material may not be available.                                

 *** NOTE ***                            CP =      31.000   TIME= 13:55:45
 The step data was checked and warning messages were found.              
  Please review output or errors file (                                  
 C:\Users\Shiv\Documents\ANSYS\_ProjectScratch\Scr34E4\file0.err ) for   
 these warning messages.                                                 

 *** NOTE ***                            CP =      31.000   TIME= 13:55:45
 This nonlinear analysis defaults to using the full Newton-Raphson       
 solution procedure.  This can be modified using the NROPT command.      

 *** ANSYS - ENGINEERING ANALYSIS SYSTEM  RELEASE 2021 R1          21.1     ***
 DISTRIBUTED ANSYS Mechanical Enterprise Academic Student      

 00000000  VERSION=WINDOWS x64   13:55:45  JUN 11, 2021 CP=     31.125

 Bolted Nozzle Flange--Static Structural (B5)                                  



                      L O A D   S T E P   O P T I O N S

   LOAD STEP NUMBER. . . . . . . . . . . . . . . .     3
   TIME AT END OF THE LOAD STEP. . . . . . . . . .  3.0000    
   AUTOMATIC TIME STEPPING . . . . . . . . . . . .    ON
      INITIAL NUMBER OF SUBSTEPS . . . . . . . . .     5
      MAXIMUM NUMBER OF SUBSTEPS . . . . . . . . .    20
      MINIMUM NUMBER OF SUBSTEPS . . . . . . . . .     1
   MAXIMUM NUMBER OF EQUILIBRIUM ITERATIONS. . . .    15
   STEP CHANGE BOUNDARY CONDITIONS . . . . . . . .    NO
   TERMINATE ANALYSIS IF NOT CONVERGED . . . . . .YES (EXIT)  
   CONVERGENCE CONTROLS. . . . . . . . . . . . . .USE DEFAULTS
   PRINT OUTPUT CONTROLS . . . . . . . . . . . . .NO PRINTOUT
   DATABASE OUTPUT CONTROLS
      ITEM     FREQUENCY   COMPONENT
       ALL       NONE               
      NSOL        ALL               
      RSOL        ALL               
      EANG        ALL               
      ETMP        ALL               
      VENG        ALL               
      NLOA        ALL               
      STRS        ALL               
      SRFS        ALL               
      BKST        ALL               
      EPEL        ALL               
      EPPL        ALL               
      EPTH        ALL               
      MISC        ALL       _ALLCONTACTS
      CONT        ALL               
      NLDA        ALL               


 SOLUTION MONITORING INFO IS WRITTEN TO FILE= file.mntr                                                                                                                                                                                                                                                           

 >>>> PRETENSION ELEMENT STATUS <<<<
 SECTION NAME     PT.NODE  --------STATUS--------------------  ----LOAD SOURCE----
    22              26098  FIXED RELATIVE MOTION= 0.15582E-02  D COMMAND
 MAXIMUM NUMBER OF EQUILIBRIUM ITERATIONS HAS BEEN MODIFIED              
  TO BE, NEQIT = 26, BY SOLUTION CONTROL LOGIC.                          

     FORCE CONVERGENCE VALUE  =  0.3783E+06  CRITERION=   1931.    
     DISP CONVERGENCE VALUE   =  0.2016      CRITERION=  0.1028E-01
    EQUIL ITER   1 COMPLETED.  NEW TRIANG MATRIX.  MAX DOF INC= -0.2016    
     DISP CONVERGENCE VALUE   =  0.2016      CRITERION=  0.1049E-01
     LINE SEARCH PARAMETER =   1.000     SCALED MAX DOF INC = -0.2016    
     FORCE CONVERGENCE VALUE  =   1.998      CRITERION=   55.61     <<< CONVERGED
    EQUIL ITER   2 COMPLETED.  NEW TRIANG MATRIX.  MAX DOF INC=  0.8114E-06
     DISP CONVERGENCE VALUE   =  0.8114E-06  CRITERION=  0.1071E-01 <<< CONVERGED
     LINE SEARCH PARAMETER =   1.000     SCALED MAX DOF INC =  0.8114E-06
     FORCE CONVERGENCE VALUE  =  0.6438E-02  CRITERION=   56.75     <<< CONVERGED
    >>> SOLUTION CONVERGED AFTER EQUILIBRIUM ITERATION   2
 *** LOAD STEP     3   SUBSTEP     1  COMPLETED.    CUM ITER =     22
 *** TIME =   2.20000         TIME INC =  0.200000    
 *** AUTO STEP TIME:  NEXT TIME INC = 0.20000      UNCHANGED

     FORCE CONVERGENCE VALUE  =   1.892      CRITERION=   2364.    
     DISP CONVERGENCE VALUE   =  0.8983E-06  CRITERION=  0.1028E-01 <<< CONVERGED
    EQUIL ITER   1 COMPLETED.  NEW TRIANG MATRIX.  MAX DOF INC=  0.8983E-06
     DISP CONVERGENCE VALUE   =  0.8982E-06  CRITERION=  0.1049E-01 <<< CONVERGED
     LINE SEARCH PARAMETER =  0.9999     SCALED MAX DOF INC =  0.8982E-06
     FORCE CONVERGENCE VALUE  =  0.1199E-01  CRITERION=   55.62     <<< CONVERGED
    EQUIL ITER   2 COMPLETED.  NEW TRIANG MATRIX.  MAX DOF INC= -0.8183E-08
     DISP CONVERGENCE VALUE   =  0.8183E-08  CRITERION=  0.1071E-01 <<< CONVERGED
     LINE SEARCH PARAMETER =   1.000     SCALED MAX DOF INC = -0.8183E-08
     FORCE CONVERGENCE VALUE  =  0.5625E-04  CRITERION=   56.76     <<< CONVERGED
    >>> SOLUTION CONVERGED AFTER EQUILIBRIUM ITERATION   2
 *** LOAD STEP     3   SUBSTEP     2  COMPLETED.    CUM ITER =     24
 *** TIME =   2.40000         TIME INC =  0.200000    
 *** AUTO TIME STEP:  NEXT TIME INC = 0.30000      INCREASED (FACTOR = 1.5000)

     FORCE CONVERGENCE VALUE  =   1.354      CRITERION=   3531.    
     DISP CONVERGENCE VALUE   =  0.9449E-06  CRITERION=  0.1543E-01 <<< CONVERGED
    EQUIL ITER   1 COMPLETED.  NEW TRIANG MATRIX.  MAX DOF INC=  0.9449E-06
     DISP CONVERGENCE VALUE   =  0.9447E-06  CRITERION=  0.1574E-01 <<< CONVERGED
     LINE SEARCH PARAMETER =  0.9998     SCALED MAX DOF INC =  0.9447E-06
     FORCE CONVERGENCE VALUE  =  0.6767E-02  CRITERION=   55.64     <<< CONVERGED
    EQUIL ITER   2 COMPLETED.  NEW TRIANG MATRIX.  MAX DOF INC= -0.6846E-08
     DISP CONVERGENCE VALUE   =  0.6846E-08  CRITERION=  0.1606E-01 <<< CONVERGED
     LINE SEARCH PARAMETER =   1.000     SCALED MAX DOF INC = -0.6846E-08
     FORCE CONVERGENCE VALUE  =  0.4136E-04  CRITERION=   56.77     <<< CONVERGED
    >>> SOLUTION CONVERGED AFTER EQUILIBRIUM ITERATION   2
 *** LOAD STEP     3   SUBSTEP     3  COMPLETED.    CUM ITER =     26
 *** TIME =   2.70000         TIME INC =  0.300000    
 *** AUTO STEP TIME:  NEXT TIME INC = 0.30000      UNCHANGED

     FORCE CONVERGENCE VALUE  =   2.980      CRITERION=   3531.    
     DISP CONVERGENCE VALUE   =  0.2378E-05  CRITERION=  0.1543E-01 <<< CONVERGED
    EQUIL ITER   1 COMPLETED.  NEW TRIANG MATRIX.  MAX DOF INC=  0.2378E-05
     DISP CONVERGENCE VALUE   =  0.2378E-05  CRITERION=  0.1574E-01 <<< CONVERGED
     LINE SEARCH PARAMETER =  0.9998     SCALED MAX DOF INC =  0.2378E-05
     FORCE CONVERGENCE VALUE  =  0.2123E-01  CRITERION=   55.65     <<< CONVERGED
    EQUIL ITER   2 COMPLETED.  NEW TRIANG MATRIX.  MAX DOF INC= -0.1482E-07
     DISP CONVERGENCE VALUE   =  0.1482E-07  CRITERION=  0.1606E-01 <<< CONVERGED
     LINE SEARCH PARAMETER =   1.000     SCALED MAX DOF INC = -0.1482E-07
     FORCE CONVERGENCE VALUE  =  0.7330E-04  CRITERION=   56.79     <<< CONVERGED
    >>> SOLUTION CONVERGED AFTER EQUILIBRIUM ITERATION   2
 *** LOAD STEP     3   SUBSTEP     4  COMPLETED.    CUM ITER =     28
 *** TIME =   3.00000         TIME INC =  0.300000    
 ****************************************************
 *************** FINISHED SOLVE FOR LS 3 *************

 *GET  _WALLASOL  FROM  ACTI  ITEM=TIME WALL  VALUE=  13.9330556    

 PRINTOUT RESUMED BY /GOP

 FINISH SOLUTION PROCESSING


 ***** ROUTINE COMPLETED *****  CP =        44.188



 *** ANSYS - ENGINEERING ANALYSIS SYSTEM  RELEASE 2021 R1          21.1     ***
 DISTRIBUTED ANSYS Mechanical Enterprise Academic Student      

 00000000  VERSION=WINDOWS x64   13:55:59  JUN 11, 2021 CP=     44.188

 Bolted Nozzle Flange--Static Structural (B5)                                  



          ***** ANSYS RESULTS INTERPRETATION (POST1) *****

 *** NOTE ***                            CP =      44.188   TIME= 13:55:59
 Reading results into the database (SET command) will update the current 
 displacement and force boundary conditions in the database with the     
 values from the results file for that load set.  Note that any          
 subsequent solutions will use these values unless action is taken to    
 either SAVE the current values or not overwrite them (/EXIT,NOSAVE).    

 Set Encoding of XML File to:ISO-8859-1

 Set Output of XML File to:
     PARM,     ,     ,     ,     ,     ,     ,     ,     ,     ,     ,     ,
         ,     ,     ,     ,     ,     ,     ,

 DATABASE WRITTEN ON FILE  parm.xml                                                                                                                                                                                                                                                            

 EXIT THE ANSYS POST1 DATABASE PROCESSOR


 ***** ROUTINE COMPLETED *****  CP =        44.219



 PRINTOUT RESUMED BY /GOP

 *GET  _WALLDONE  FROM  ACTI  ITEM=TIME WALL  VALUE=  13.9330556    

 PARAMETER _PREPTIME =     0.000000000    

 PARAMETER _SOLVTIME =     44.00000000    

 PARAMETER _POSTTIME =     0.000000000    

 PARAMETER _TOTALTIM =     44.00000000    

 *GET  _DLBRATIO  FROM  ACTI  ITEM=SOLU DLBR  VALUE=  1.02210294    

 *GET  _COMBTIME  FROM  ACTI  ITEM=SOLU COMB  VALUE= 0.293630300    
 --- Total number of nodes = 26241
 --- Total number of elements = 6581
 --- Element load balance ratio = 1.02210294
 --- Time to combine distributed files = 0.2936303

 EXIT ANSYS WITHOUT SAVING DATABASE


 NUMBER OF WARNING MESSAGES ENCOUNTERED=          7
 NUMBER OF ERROR   MESSAGES ENCOUNTERED=          0

+--------- D I S T R I B U T E D   A N S Y S   S T A T I S T I C S ------------+

Release: 2021 R1            Build: 21.1       Update: UP20201109   Platform: WINDOWS x64 
Date Run: 06/11/2021   Time: 13:55     Process ID: 23764
Operating System: Windows 10  (Build: 19042)

Processor Model: Intel(R) Core(TM) i5-9300H CPU @ 2.40GHz

Compiler: Intel(R) FORTRAN Compiler Version 19.0.0  (Build: 20190206)
          Intel(R) C/C++ Compiler Version 19.0.0  (Build: 20190206)
          Intel(R) Math Kernel Library Version 2020.0.0 Product Build 20191125

Number of machines requested            :    1
Total number of cores available         :    8
Number of physical cores available      :    4
Number of processes requested           :    2
Number of threads per process requested :    1
Total number of cores requested         :    2 (Distributed Memory Parallel)               
MPI Type: INTELMPI
MPI Version: Intel(R) MPI Library 2018 Update 3 for Windows* OS


GPU Acceleration: Not Requested

Job Name: file0
Input File: dummy.dat

  Core                Machine Name   Working Directory
 -----------------------------------------------------
     0                     SHIV210   C:\Users\Shiv\Documents\ANSYS\_ProjectScratch\Scr34E4
     1                     SHIV210   C:\Users\Shiv\Documents\ANSYS\_ProjectScratch\Scr34E4
 
Latency time from master to core     1 =    1.474 microseconds
 
Communication speed from master to core     1 =  4049.75 MB/sec

Total CPU time for main thread                    :       43.7 seconds
Total CPU time summed for all threads             :       44.6 seconds

Elapsed time spent obtaining a license            :        0.4 seconds
Elapsed time spent pre-processing model (/PREP7)  :        0.5 seconds
Elapsed time spent solution - preprocessing       :        0.7 seconds
Elapsed time spent computing solution             :       42.6 seconds
Elapsed time spent solution - postprocessing      :        0.3 seconds
Elapsed time spent post-processing model (/POST1) :        0.0 seconds
 
Equation solver used                              :            Sparse (symmetric)
Equation solver computational rate                :       23.2 Gflops
Equation solver effective I/O rate                :       28.8 GB/sec

Maximum total memory used                         :      424.0 MB
Maximum total memory allocated                    :     3136.0 MB
Total physical memory available                   :          8 GB

Total amount of I/O written to disk               :        3.3 GB
Total amount of I/O read from disk                :        6.5 GB

+------ E N D   D I S T R I B U T E D   A N S Y S   S T A T I S T I C S -------+


 *---------------------------------------------------------------------------*
 |                                                                           |
 |                       DISTRIBUTED ANSYS RUN COMPLETED                     |
 |                                                                           |
 |---------------------------------------------------------------------------|
 |                                                                           |
 | Ansys 2021 R1               Build 21.1         UP20201109     WINDOWS x64 |
 |                                                                           |
 |---------------------------------------------------------------------------|
 |                                                                           |
 | Database Requested(-db)  1024 MB    Scratch Memory Requested      1024 MB |
 | Maximum Database Used      22 MB    Maximum Scratch Memory Used    211 MB |
 |                                                                           |
 |---------------------------------------------------------------------------|
 |                                                                           |
 |        CP Time      (sec) =         44.609       Time  =  13:55:59        |
 |        Elapsed Time (sec) =         46.000       Date  =  06/11/2021      |
 |                                                                           |
 *---------------------------------------------------------------------------*
