/batch
/config,noeldb,1     ! force off writing results to database
*get,_wallstrt,active,,time,wall
! ANSYS input file written by Workbench version 2021 R1
! File used for geometry attach: C:\Users\Shiv\Downloads\asset-v1_CornellX+ENGR2000X+1T2018+type@asset+block@crank_assembly.x_t
/title,pedal--Static Structural (A5)
! ****** Begin Custom Load Command Snippet ******
/COM, ACT Extensions:
/COM,     LSDYNA, 2021.1
/COM,     5f463412-bd3e-484b-87e7-cbc0a665e474, wbex
/COM,
! ****** End   Custom Load Command Snippet ******
*DIM,_wb_ProjectScratch_dir,string,248
_wb_ProjectScratch_dir(1) = 'C:\Users\Shiv\Documents\ANSYS\_ProjectScratch\Scr24A0\'
*DIM,_wb_SolverFiles_dir,string,248
_wb_SolverFiles_dir(1) = 'C:\Users\Shiv\Documents\ANSYS\pedal_files\dp0\SYS\MECH\'
*DIM,_wb_userfiles_dir,string,248
_wb_userfiles_dir(1) = 'C:\Users\Shiv\Documents\ANSYS\pedal_files\user_files\'
/com,--- Data in consistent BIN units. See Solving Units in the help system for more information.
/units,BIN
/nopr
/wb,file,start              !  signify a WB generated input file
/prep7
! Turn off shape checking because checks already performed inside WB mesher.
! See help system for more information.
SHPP,OFF,,NOWARN
/nolist
etcon,set             ! allow ANSYS to choose best KEYOP's for 180x elements, resets any applicable keyopt to MAPDL defaults
/com,*********** Nodes for the whole assembly ***********
nblock,3,,6850
(1i9,3e20.9e3)
        1     6.942913288E+00    -3.127726214E-17     1.249999985E-01
        2     7.061723891E+00     4.104943799E-02     1.249999985E-01
        3     7.023764890E+00    -1.426581800E-01     1.249999985E-01
        4     7.092491956E+00    -6.407067380E-02     1.249999985E-01
        5     6.942913288E+00    -3.127726214E-17     0.000000000E+00
        6     7.061683364E+00     4.104899606E-02     0.000000000E+00
        7     7.023688999E+00    -1.426873873E-01     0.000000000E+00
        8     7.092429229E+00    -6.407690699E-02     0.000000000E+00
        9     7.185479474E+00    -8.589906157E-02     1.250000000E-01
       10     7.129210717E+00    -2.442225189E-01     1.250000000E-01
       11     7.185408898E+00    -8.588889564E-02     0.000000000E+00
       12     7.129147124E+00    -2.441941204E-01     0.000000000E+00
       13     7.186247887E+00     8.136995908E-02     1.250000000E-01
       14     7.186177849E+00     8.136069076E-02     0.000000000E+00
       15     7.131421917E+00     2.402296150E-01     1.250000000E-01
       16     7.027628623E+00     1.467197133E-01     1.249999985E-01
       17     7.131358367E+00     2.402019238E-01     0.000000000E+00
       18     7.027519866E+00     1.467821902E-01     0.000000000E+00
       19     7.027059726E+00     3.719492211E-01     1.250000000E-01
       20     6.868694978E+00     1.777662280E-01     1.250000000E-01
! ... 6209 like lines cut
/wb,elem,start            !  set before creation of elements
/com,*********** Elements for Body 1 "Bike Crank 2 rev 2011 x.375" ***********
et,1,186
keyo,1,2,1          ! set full integration on SOLID186
eblock,19,solid,,1099
(19i9)
        1        1        1        1        0        0        0        0       20        0        1     1403     1128     1127     1400     1723     1448     1447     1720
     5446     4620     5420     5432     1734     5533     6211     6221     6220     5534     5532     6210
        1        1        1        1        0        0        0        0       20        0        2     1119     1406     1111     1109     1439     1726     1431     1429
     5445     5444     4575     4599     1946     6228     5495     5515     5514     6227     5496     5494
        1        1        1        1        0        0        0        0       20        0        3     1406     1148     1149     1111     1726     1468     1469     1431
     5443     4681     4774     5444     1947     5588     5678     6228     6227     5589     5587     5496
        1        1        1        1        0        0        0        0       20        0        4     1131     1125     1096     1122     1451     1445     1416     1442
     5441     4614     4608     4632     1941     5528     5523     5543     5542     5529     5466     5522
        1        1        1        1        0        0        0        0       20        0        5     1115     1405     1106     1104     1435     1725     1426     1424
     5440     5439     4563     4590     1938     6226     5483     5508     5507     6225     5484     5482
        1        1        1        1        0        0        0        0       20        0        6     1405     1404     1399     1106     1725     1724     1719     1426
     5438     5436     5416     5439     1939     6224     6207     6226     6225     6223     6208     5484
        1        1        1        1        0        0        0        0       20        0        7     1404     1402     1401     1399     1724     1722     1721     1719
     5435     5433     5425     5436     1940     6222     6216     6224     6223     6219     6213     6208
        1        1        1        1        0        0        0        0       20        0        8     1402     1403     1400     1401     1722     1723     1720     1721
     5430     5432     5423     5433     1733     6221     6214     6222     6219     6220     6210     6213
        1        1        1        1        0        0        0        0       20        0        9     1123     1114     1398     1138     1443     1434     1718     1458
     5428     5427     5413     4651     1957     6218     6205     5562     5524     5506     6202     5563
        1        1        1        1        0        0        0        0       20        0       10     1114     1107     1397     1398     1434     1427     1717     1718
     4585     5426     5411     5427     5505     6217     6203     6218     5506     5488     6199     6202
! ... 2179 like lines cut
!Material Id = {5E36A4C6-FFE5-4BF8-B3A3-AC89653F1CCF}
/wb,elem,end               !  done creating elements
/com,*********** Send User Defined Coordinate System(s) ***********
csys,0
toffst,459.67,  ! Temperature offset from absolute zero
/com,*********** Set Reference Temperature ***********
tref,71.6
/wb,mat,start              !  starting to send materials
/com,*********** Send Materials ***********
MP,EX,1,9999999.99889292,	! slinch s^-2 in^-1
MP,NUXY,1,0.33,

/wb,mat,end                !  done sending materials
!************************* Model Summary ********************
!Bike Crank 2 rev 2011 x.375,	Al 6061-t6,	matid,	1
!************************* End Model Summary ********************
! get the diagonal of the bounding box. Needed later for other things
*get,_xmin,node,,mnloc,x
*get,_ymin,node,,mnloc,y
*get,_zmin,node,,mnloc,z
*get,_xmax,node,,mxloc,x
*get,_ymax,node,,mxloc,y
*get,_zmax,node,,mxloc,z
_ASMDIAG=(_xmax-_xmin)*(_xmax-_xmin)+(_ymax-_ymin)*(_ymax-_ymin)+(_zmax-_zmin)*(_zmax-_zmin)
_ASMDIAG=SQRT(_ASMDIAG)
/wb,contact,start          !  starting to send contact
/wb,contact,end            !  done creating contacts
/golist
/wb,load,start             !  starting to send loads
/com,*********** Fixed Supports ***********
CMBLOCK,_FIXEDSU,NODE,      336
(8i10)
        74        76        78        80        82        84        85        86
        87        88        94        98       102       104       127       128
       129       130       131       132       133       134       135       136
       137       138       139       140       145       147       149       150
       153       156       159       162       199       201       739       740
       741       742       743       744       745       746       747       748
       750       752       754       755       756       760       764       776
       777       778       779       780       781       782       785       787
       790       793       812      1082      1083      1084      1085      1086
      1088      1090      1092      1093      1094      1098      1102      1114
      1115      1116      1117      1118      1119      1120      1123      1125
      1128      1131      1148      1402      1403      1404      1405      1406
      1408      1410      1412      1413      1414      1418      1422      1434
      1435      1436      1437      1438      1439      1440      1443      1445
      1448      1451      1468      1722      1723      1724      1725      1726
      1727      1728      1729      1730      1731      1732      1733      1734
      1735      1736      1925      1926      1927      1928      1929      1930
      1931      1932      1933      1934      1935      1936      1937      1938
      1939      1940      1941      1942      1943      1944      1945      1946
      1947      1948      1949      1950      1951      1952      1953      1954
! ... 22 like lines cut

cmsel,s,_FIXEDSU
d,all,all
nsel,all
/com,*********** Define Force Using Surface Effect Elements ***********
local,12,0,0.,0.,0.,0.,0.,0.
csys,0
et,2,154
eblock,10,,,8
(15i9)
     2250        2        2        2       12       44       47       60       58     2131     2042     2145     2052
     2251        2        2        2       12       26       30       47       44     2096     2041     2131     2051
     2252        2        2        2       12       51       55       40       37     2140     2044     2115     2046
     2253        2        2        2       12       58       60       55       51     2145     2043     2140     2045
     2254        2        2        2       12       25       29       30       26     2098     2038     2096     2048
     2255        2        2        2       12        1        5       29       25     2054     2037     2098     2047
     2256        2        2        2       12       20       22        5        1     2088     2040     2054     2050
     2257        2        2        2       12       37       40       22       20     2115     2039     2088     2049
-1
esel,s,type,,2
keyop,2,2,1                ! Apply load in local coordinate system
keyop,2,7,1                ! Use original area so load is constant in large deformation
esel,all
/gst,on,on
fini
*get,_numnode,node,0,count
*get,_numelem,elem,0,count
*get, _MAXELEMNUM, elem, 0, NUM, MAX
*get, _MAXNODENUM, node, 0, NUM, MAX
*get, _MAXELEMTYPE, etyp, 0, NUM, MAX
*get, _MAXREALCONST, real, 0, NUM, MAX
/go
/wb,load,end               !  done creating loads
/com,--- Number of total nodes = %_numnode%
/com,--- Number of contact elements = 8
/com,--- Number of spring elements = 0
/com,--- Number of bearing elements = 0
/com,--- Number of solid elements = 1099
/com,--- Number of condensed parts = 0
/com,--- Number of total elements = %_numelem%
*get,_wallbsol,active,,time,wall
/com,****************************************************************************
/com,*************************    SOLUTION       ********************************
/com,****************************************************************************
/solu
antype,0                   ! static analysis
_thickRatio=  1     ! Ratio of thick parts in the model
eqsl,pcg,1e-8,,,,,,1
cntr,print,1               ! print out contact info and also make no initial contact an error
dmpoption,emat,no             ! Don't combine emat file for DANSYS
dmpoption,esav,no             ! Don't combine esav file for DANSYS
nldiag,cont,iter           ! print out contact info each equilibrium iteration
rescontrol,,none                 ! Do not keep any restart files
/com,****************************************************
/com,******************* SOLVE FOR LS 1 OF 1 ****************
esel,s,type,,2
nsle
sfe,all,1,pres,1,0.
sfe,all,2,pres,1,509.490908337341
sfe,all,3,pres,1,0.
nsel,all
esel,all
/nopr
/gopr
/nolist
nsub,1,1,1
time,1.
outres,erase
outres,all,none
outres,nsol,all,
outres,rsol,all
outres,eangl,all
outres,etmp,all
outres,veng,all
outres,strs,all,
outres,epel,all,
outres,eppl,all,
outres,cont,all,
! *********** WB SOLVE COMMAND ***********
! check interactive state
*get,ANSINTER_,active,,int
*if,ANSINTER_,ne,0,then
/eof
*endif
solve
/com *************** Write FE CONNECTORS ********* 
CEWRITE,file,ce,,INTE
/com,****************************************************
/com,*************** FINISHED SOLVE FOR LS 1 *************
*get,_wallasol,active,,time,wall
/nopr
*get,_numnode,node,0,count
*get,_numelem,elem,0,count
*get, _MAXELEMNUM, elem, 0, NUM, MAX
*get, _MAXNODENUM, node, 0, NUM, MAX,,,INTERNAL
*get, _MAXELEMTYPE, etyp, 0, NUM, MAX
*get, _MAXREALCONST, real, 0, NUM, MAX
/gopr
*get,_PCGITER,active,,solu,cgiter
/post1
xmlo,ENCODING,ISO-8859-1
xmlo,parm
/xml,parm,xml
fini
/gopr
*get,_walldone,active,,time,wall
_preptime=(_wallbsol-_wallstrt)*3600
_solvtime=(_wallasol-_wallbsol)*3600
_posttime=(_walldone-_wallasol)*3600
_totaltim=(_walldone-_wallstrt)*3600
*get,_dlbratio,active,0,solu,dlbr
*get,_combtime,active,0,solu,comb
/com,--- Total number of nodes = %_numnode%
/com,--- Total number of elements = %_numelem%
/com,--- Element load balance ratio = %_dlbratio%
/com,--- Time to combine distributed files = %_combtime%
/wb,file,end               ! done with WB generated input
